@<TRIPOS>MOLECULE
CR9
 51 54 0 0 0
SMALL
GASTEIGER

@<TRIPOS>ATOM
      1 C          11.4260  -10.7800   24.7940 C.ar    1  UNL1        0.0980
      2 C          11.8820   -9.6900   23.9980 C.ar    1  UNL1        0.1402
      3 C          12.7460   -9.8740   22.9280 C.ar    1  UNL1       -0.0001
      4 N          13.9420  -11.6080   21.7520 N.ar    1  UNL1       -0.3378
      5 C          13.1540  -11.1460   22.6560 C.ar    1  UNL1        0.0692
      6 N          13.2670  -13.3520   22.9440 N.ar    1  UNL1       -0.2277
      7 C          12.7470  -12.2230   23.3840 C.ar    1  UNL1        0.0904
      8 C          11.8780  -12.0710   24.4660 C.ar    1  UNL1       -0.0167
      9 C          14.0070  -12.9110   21.9190 C.ar    1  UNL1        0.1388
     10 F          11.5170   -8.4020   24.2510 F       1  UNL1       -0.2045
     11 C          14.8010  -13.7410   21.1040 C.ar    1  UNL1        0.0130
     12 C          16.1970  -13.5540   21.0400 C.ar    1  UNL1       -0.0545
     13 O          16.7790  -12.5300   21.7720 O.co2   1  UNL1       -0.8709
     14 C          16.9860  -14.3960   20.2310 C.ar    1  UNL1        0.1139
     15 C          16.3710  -15.4090   19.4900 C.ar    1  UNL1       -0.0205
     16 C          15.0030  -15.5940   19.5540 C.ar    1  UNL1       -0.0577
     17 C          14.2200  -14.7670   20.3500 C.ar    1  UNL1       -0.0515
     18 O          18.3640  -14.2200   20.1650 O.3     1  UNL1       -0.4891
     19 C          19.3730  -14.9310   20.8930 C.3     1  UNL1        0.1027
     20 C          20.6710  -15.1040   19.9720 C.3     1  UNL1       -0.0068
     21 C          20.3630  -14.8670   18.4810 C.3     1  UNL1       -0.0591
     22 C          21.8000  -14.1480   20.4000 C.3     1  UNL1       -0.0471
     23 C          22.2040  -14.4450   21.8580 C.3     1  UNL1       -0.0526
     24 C          20.9510  -14.6370   22.7980 C.3     1  UNL1       -0.0497
     25 C          19.6600  -14.0870   22.1460 C.3     1  UNL1       -0.0155
     26 C          10.5400  -10.5870   25.8820 C.2     1  UNL1        0.2690
     27 N           9.8620   -9.4580   26.0450 N.2     1  UNL1       -0.2884
     28 N          10.3760  -11.5400   26.7610 N.pl3   1  UNL1       -0.2496
     29 H          13.0896   -9.0236   22.3207 H       1  UNL1        0.0668
     30 H          14.4317  -11.0597   21.0306 H       1  UNL1        0.1674
     31 H          11.5530  -12.9441   25.0508 H       1  UNL1        0.0649
     32 H          16.9808  -16.0643   18.8507 H       1  UNL1        0.0654
     33 H          14.5318  -16.3998   18.9720 H       1  UNL1        0.0619
     34 H          13.1314  -14.9204   20.3880 H       1  UNL1        0.0624
     35 H          19.0560  -15.9436   21.1832 H       1  UNL1        0.0735
     36 H          20.9985  -16.1454   20.1071 H       1  UNL1        0.0334
     37 H          19.4944  -14.1986   18.3878 H       1  UNL1        0.0234
     38 H          21.2351  -14.4048   17.9954 H       1  UNL1        0.0234
     39 H          20.1397  -15.8284   17.9954 H       1  UNL1        0.0234
     40 H          22.6701  -14.2914   19.7425 H       1  UNL1        0.0269
     41 H          21.4477  -13.1088   20.3229 H       1  UNL1        0.0269
     42 H          22.8059  -15.3655   21.8780 H       1  UNL1        0.0265
     43 H          22.7766  -13.5832   22.2314 H       1  UNL1        0.0265
     44 H          20.8188  -15.7098   23.0019 H       1  UNL1        0.0266
     45 H          21.1307  -14.0793   23.7290 H       1  UNL1        0.0266
     46 H          19.8024  -13.0335   21.8635 H       1  UNL1        0.0301
     47 H          18.8175  -14.1450   22.8509 H       1  UNL1        0.0301
     48 H           9.2257   -9.3507   26.8478 H       1  UNL1        0.3009
     49 H           9.9721   -8.6889   25.3687 H       1  UNL1        0.3009
     50 H           9.7327  -11.4042   27.5539 H       1  UNL1        0.2883
     51 H          10.8900  -12.4270   26.6609 H       1  UNL1        0.2883
@<TRIPOS>UNITY_ATOM_ATTR
13 1
charge -1
27 1
charge 1
@<TRIPOS>BOND
     1     2     1   ar
     2     3     2   ar
     3     5     4   ar
     4     5     3   ar
     5     7     6   ar
     6     7     5   ar
     7     8     7   ar
     8     8     1   ar
     9     9     4   ar
    10     9     6   ar
    11    10     2    1
    12    11     9    1
    13    12    11   ar
    14    13    12    1
    15    14    12   ar
    16    15    14   ar
    17    16    15   ar
    18    17    16   ar
    19    17    11   ar
    20    18    14    1
    21    19    18    1
    22    20    19    1
    23    21    20    1
    24    22    20    1
    25    23    22    1
    26    24    23    1
    27    25    19    1
    28    25    24    1
    29    26     1    1
    30    27    26    2
    31    28    26    1
    32     3    29    1
    33     4    30    1
    34     8    31    1
    35    15    32    1
    36    16    33    1
    37    17    34    1
    38    19    35    1
    39    20    36    1
    40    21    37    1
    41    21    38    1
    42    21    39    1
    43    22    40    1
    44    22    41    1
    45    23    42    1
    46    23    43    1
    47    24    44    1
    48    24    45    1
    49    25    46    1
    50    25    47    1
    51    27    48    1
    52    27    49    1
    53    28    50    1
    54    28    51    1
