CR9
 OpenBabel11072215093D

 51 54  0  0  0  0  0  0  0  0999 V2000
   11.4260  -10.7800   24.7940 C   0  0  0  0  0  0  0  0  0  0  0  0
   11.8820   -9.6900   23.9980 C   0  0  0  0  0  0  0  0  0  0  0  0
   12.7460   -9.8740   22.9280 C   0  0  0  0  0  0  0  0  0  0  0  0
   13.9420  -11.6080   21.7520 N   0  0  0  0  0  0  0  0  0  0  0  0
   13.1540  -11.1460   22.6560 C   0  0  0  0  0  0  0  0  0  0  0  0
   13.2670  -13.3520   22.9440 N   0  0  0  0  0  0  0  0  0  0  0  0
   12.7470  -12.2230   23.3840 C   0  0  0  0  0  0  0  0  0  0  0  0
   11.8780  -12.0710   24.4660 C   0  0  0  0  0  0  0  0  0  0  0  0
   14.0070  -12.9110   21.9190 C   0  0  0  0  0  0  0  0  0  0  0  0
   11.5170   -8.4020   24.2510 F   0  0  0  0  0  0  0  0  0  0  0  0
   14.8010  -13.7410   21.1040 C   0  0  0  0  0  0  0  0  0  0  0  0
   16.1970  -13.5540   21.0400 C   0  0  0  0  0  0  0  0  0  0  0  0
   16.7790  -12.5300   21.7720 O   0  5  0  0  0  0  0  0  0  0  0  0
   16.9860  -14.3960   20.2310 C   0  0  0  0  0  0  0  0  0  0  0  0
   16.3710  -15.4090   19.4900 C   0  0  0  0  0  0  0  0  0  0  0  0
   15.0030  -15.5940   19.5540 C   0  0  0  0  0  0  0  0  0  0  0  0
   14.2200  -14.7670   20.3500 C   0  0  0  0  0  0  0  0  0  0  0  0
   18.3640  -14.2200   20.1650 O   0  0  0  0  0  0  0  0  0  0  0  0
   19.3730  -14.9310   20.8930 C   0  0  1  0  0  0  0  0  0  0  0  0
   20.6710  -15.1040   19.9720 C   0  0  1  0  0  0  0  0  0  0  0  0
   20.3630  -14.8670   18.4810 C   0  0  0  0  0  0  0  0  0  0  0  0
   21.8000  -14.1480   20.4000 C   0  0  0  0  0  0  0  0  0  0  0  0
   22.2040  -14.4450   21.8580 C   0  0  0  0  0  0  0  0  0  0  0  0
   20.9510  -14.6370   22.7980 C   0  0  0  0  0  0  0  0  0  0  0  0
   19.6600  -14.0870   22.1460 C   0  0  0  0  0  0  0  0  0  0  0  0
   10.5400  -10.5870   25.8820 C   0  0  0  0  0  0  0  0  0  0  0  0
    9.8620   -9.4580   26.0450 N   0  3  0  0  0  0  0  0  0  0  0  0
   10.3760  -11.5400   26.7610 N   0  0  0  0  0  0  0  0  0  0  0  0
   13.0896   -9.0236   22.3207 H   0  0  0  0  0  0  0  0  0  0  0  0
   14.4317  -11.0597   21.0306 H   0  0  0  0  0  0  0  0  0  0  0  0
   11.5530  -12.9441   25.0508 H   0  0  0  0  0  0  0  0  0  0  0  0
   16.9808  -16.0643   18.8507 H   0  0  0  0  0  0  0  0  0  0  0  0
   14.5318  -16.3998   18.9720 H   0  0  0  0  0  0  0  0  0  0  0  0
   13.1314  -14.9204   20.3880 H   0  0  0  0  0  0  0  0  0  0  0  0
   19.0560  -15.9436   21.1832 H   0  0  0  0  0  0  0  0  0  0  0  0
   20.9985  -16.1454   20.1071 H   0  0  0  0  0  0  0  0  0  0  0  0
   19.4944  -14.1986   18.3878 H   0  0  0  0  0  0  0  0  0  0  0  0
   21.2351  -14.4048   17.9954 H   0  0  0  0  0  0  0  0  0  0  0  0
   20.1397  -15.8284   17.9954 H   0  0  0  0  0  0  0  0  0  0  0  0
   22.6701  -14.2914   19.7425 H   0  0  0  0  0  0  0  0  0  0  0  0
   21.4477  -13.1088   20.3229 H   0  0  0  0  0  0  0  0  0  0  0  0
   22.8059  -15.3655   21.8780 H   0  0  0  0  0  0  0  0  0  0  0  0
   22.7766  -13.5832   22.2314 H   0  0  0  0  0  0  0  0  0  0  0  0
   20.8188  -15.7098   23.0019 H   0  0  0  0  0  0  0  0  0  0  0  0
   21.1307  -14.0793   23.7290 H   0  0  0  0  0  0  0  0  0  0  0  0
   19.8024  -13.0335   21.8635 H   0  0  0  0  0  0  0  0  0  0  0  0
   18.8175  -14.1450   22.8509 H   0  0  0  0  0  0  0  0  0  0  0  0
    9.2257   -9.3507   26.8478 H   0  0  0  0  0  0  0  0  0  0  0  0
    9.9721   -8.6889   25.3687 H   0  0  0  0  0  0  0  0  0  0  0  0
    9.7327  -11.4042   27.5539 H   0  0  0  0  0  0  0  0  0  0  0  0
   10.8900  -12.4270   26.6609 H   0  0  0  0  0  0  0  0  0  0  0  0
  2  1  2  0  0  0  0
  3  2  1  0  0  0  0
  3 29  1  0  0  0  0
  4 30  1  0  0  0  0
  5  4  1  0  0  0  0
  5  3  2  0  0  0  0
  7  6  1  0  0  0  0
  7  5  1  0  0  0  0
  8  7  2  0  0  0  0
  8  1  1  0  0  0  0
  8 31  1  0  0  0  0
  9  4  1  0  0  0  0
  9  6  2  0  0  0  0
 10  2  1  0  0  0  0
 11  9  1  0  0  0  0
 12 11  2  0  0  0  0
 13 12  1  0  0  0  0
 14 12  1  0  0  0  0
 15 14  2  0  0  0  0
 15 32  1  0  0  0  0
 16 15  1  0  0  0  0
 16 33  1  0  0  0  0
 17 16  2  0  0  0  0
 17 11  1  0  0  0  0
 17 34  1  0  0  0  0
 18 14  1  0  0  0  0
 19 18  1  0  0  0  0
 19 35  1  1  0  0  0
 20 19  1  0  0  0  0
 20 36  1  1  0  0  0
 21 20  1  0  0  0  0
 21 37  1  0  0  0  0
 21 38  1  0  0  0  0
 21 39  1  0  0  0  0
 22 20  1  0  0  0  0
 22 40  1  0  0  0  0
 22 41  1  0  0  0  0
 23 22  1  0  0  0  0
 23 42  1  0  0  0  0
 23 43  1  0  0  0  0
 24 23  1  0  0  0  0
 24 44  1  0  0  0  0
 24 45  1  0  0  0  0
 25 19  1  0  0  0  0
 25 24  1  0  0  0  0
 25 46  1  0  0  0  0
 25 47  1  0  0  0  0
 26  1  1  0  0  0  0
 27 26  2  0  0  0  0
 27 48  1  0  0  0  0
 27 49  1  0  0  0  0
 28 26  1  0  0  0  0
 28 50  1  0  0  0  0
 28 51  1  0  0  0  0
M  CHG  2  13  -1  27   1
M  END
$$$$
