2EX
  Mrv15b2303062314092D          

 28 32  0  0  0  0            999 V2000
   -2.0311    0.0318    0.0000 C   0  0  0  0  0  0  0  0  0  0  0  0
   -2.7456    0.4443    0.0000 C   0  0  0  0  0  0  0  0  0  0  0  0
   -3.4601    0.0318    0.0000 C   0  0  0  0  0  0  0  0  0  0  0  0
   -3.4601   -0.7932    0.0000 C   0  0  0  0  0  0  0  0  0  0  0  0
   -2.7456   -1.2057    0.0000 N   0  0  0  0  0  0  0  0  0  0  0  0
   -2.0311   -0.7932    0.0000 C   0  0  0  0  0  0  0  0  0  0  0  0
   -1.3166    0.4443    0.0000 C   0  0  0  0  0  0  0  0  0  0  0  0
   -1.3166    1.2693    0.0000 C   0  0  0  0  0  0  0  0  0  0  0  0
   -0.6022    1.6818    0.0000 C   0  0  0  0  0  0  0  0  0  0  0  0
    0.1123    1.2693    0.0000 C   0  0  0  0  0  0  0  0  0  0  0  0
    0.1123    0.4443    0.0000 C   0  0  0  0  0  0  0  0  0  0  0  0
   -0.6022    0.0318    0.0000 C   0  0  0  0  0  0  0  0  0  0  0  0
    0.8268    1.6818    0.0000 O   0  0  0  0  0  0  0  0  0  0  0  0
    1.5412    1.2693    0.0000 C   0  0  2  0  0  0  0  0  0  0  0  0
    1.5412    0.4443    0.0000 C   0  0  1  0  0  0  0  0  0  0  0  0
    0.8268    0.0318    0.0000 C   0  0  1  0  0  0  0  0  0  0  0  0
    2.2557    1.6818    0.0000 C   0  0  0  0  0  0  0  0  0  0  0  0
    2.9702    1.2693    0.0000 C   0  0  0  0  0  0  0  0  0  0  0  0
    2.9702    0.4443    0.0000 O   0  0  0  0  0  0  0  0  0  0  0  0
    2.2557    0.0318    0.0000 C   0  0  0  0  0  0  0  0  0  0  0  0
    0.1593   -0.4532    0.0000 N   0  0  0  0  0  0  0  0  0  0  0  0
    0.4143   -1.2378    0.0000 C   0  0  0  0  0  0  0  0  0  0  0  0
    1.2393   -1.2378    0.0000 N   0  0  0  0  0  0  0  0  0  0  0  0
    1.4942   -0.4532    0.0000 C   0  0  0  0  0  0  0  0  0  0  0  0
    2.3192   -0.4532    0.0000 O   0  0  0  0  0  0  0  0  0  0  0  0
   -0.0707   -1.9052    0.0000 N   0  0  0  0  0  0  0  0  0  0  0  0
    1.7242   -1.9052    0.0000 C   0  0  0  0  0  0  0  0  0  0  0  0
   -1.3166   -1.2057    0.0000 F   0  0  0  0  0  0  0  0  0  0  0  0
 24 25  2  0  0  0  0
 17 18  1  0  0  0  0
 18 19  1  0  0  0  0
 14 17  1  0  0  0  0
 23 27  1  0  0  0  0
 14 13  1  1  0  0  0
 14 15  1  0  0  0  0
 23 24  1  0  0  0  0
 16 24  1  6  0  0  0
 19 20  1  0  0  0  0
 10 13  1  0  0  0  0
 15 20  1  6  0  0  0
 22 23  1  0  0  0  0
  9 10  4  0  0  0  0
 10 11  4  0  0  0  0
 15 16  1  0  0  0  0
  8  9  4  0  0  0  0
 11 16  1  0  0  0  0
 16 21  1  1  0  0  0
 11 12  4  0  0  0  0
  7  8  4  0  0  0  0
  2  3  4  0  0  0  0
  1  2  4  0  0  0  0
  7 12  4  0  0  0  0
  1  7  1  0  0  0  0
 21 22  2  0  0  0  0
 22 26  1  0  0  0  0
  3  4  4  0  0  0  0
  1  6  4  0  0  0  0
  4  5  4  0  0  0  0
  5  6  4  0  0  0  0
  6 28  1  0  0  0  0
M  END
