2EX
  -OEChem-07172107083D

 47 51  0     1  0  0  0  0  0999 V2000
    3.5520    0.6560   -0.1420 C   0  0  0  0  0  0  0  0  0  0  0  0
    4.4860    1.3230   -0.9380 C   0  0  0  0  0  0  0  0  0  0  0  0
    5.7830    0.8380   -0.9760 C   0  0  0  0  0  0  0  0  0  0  0  0
    6.1100   -0.2800   -0.2310 C   0  0  0  0  0  0  0  0  0  0  0  0
    5.2080   -0.8910    0.5130 N   0  0  0  0  0  0  0  0  0  0  0  0
    3.9610   -0.4670    0.5810 C   0  0  0  0  0  0  0  0  0  0  0  0
    2.1510    1.1360   -0.0600 C   0  0  0  0  0  0  0  0  0  0  0  0
    1.8860    2.4790    0.2000 C   0  0  0  0  0  0  0  0  0  0  0  0
    0.5820    2.9180    0.2740 C   0  0  0  0  0  0  0  0  0  0  0  0
   -0.4720    2.0290    0.0890 C   0  0  0  0  0  0  0  0  0  0  0  0
   -0.2110    0.6910   -0.1690 C   0  0  0  0  0  0  0  0  0  0  0  0
    1.0950    0.2480   -0.2490 C   0  0  0  0  0  0  0  0  0  0  0  0
   -1.7430    2.5040    0.1650 O   0  0  0  0  0  0  0  0  0  0  0  0
   -2.7980    1.5630    0.3670 C   0  0  2  0  0  0  0  0  0  0  0  0
   -2.6380    0.4350   -0.6640 C   0  0  1  0  0  0  0  0  0  0  0  0
   -1.3300   -0.2940   -0.3700 C   0  0  1  0  0  0  0  0  0  0  0  0
   -4.1480    2.2510    0.1440 C   0  0  0  0  0  0  0  0  0  0  0  0
   -5.2660    1.2100    0.2440 C   0  0  0  0  0  0  0  0  0  0  0  0
   -5.0400    0.1750   -0.7160 O   0  0  0  0  0  0  0  0  0  0  0  0
   -3.8130   -0.5350   -0.5300 C   0  0  0  0  0  0  0  0  0  0  0  0
   -1.0040   -1.2260   -1.4540 N   0  0  0  0  0  0  0  0  0  0  0  0
   -0.9750   -2.4200   -0.9430 C   0  0  0  0  0  0  0  0  0  0  0  0
   -1.2480   -2.4280    0.4030 N   0  0  0  0  0  0  0  0  0  0  0  0
   -1.4800   -1.1740    0.8500 C   0  0  0  0  0  0  0  0  0  0  0  0
   -1.7490   -0.8310    1.9810 O   0  0  0  0  0  0  0  0  0  0  0  0
   -0.6990   -3.5520   -1.6710 N   0  0  0  0  0  0  0  0  0  0  0  0
   -1.2840   -3.6310    1.2390 C   0  0  0  0  0  0  0  0  0  0  0  0
    3.0710   -1.1240    1.3570 F   0  0  0  0  0  0  0  0  0  0  0  0
    4.2040    2.1940   -1.5100 H   0  0  0  0  0  0  0  0  0  0  0  0
    6.5310    1.3290   -1.5810 H   0  0  0  0  0  0  0  0  0  0  0  0
    7.1210   -0.6590   -0.2590 H   0  0  0  0  0  0  0  0  0  0  0  0
    2.7000    3.1740    0.3430 H   0  0  0  0  0  0  0  0  0  0  0  0
    0.3770    3.9590    0.4770 H   0  0  0  0  0  0  0  0  0  0  0  0
    1.2980   -0.7940   -0.4500 H   0  0  0  0  0  0  0  0  0  0  0  0
   -2.7430    1.1540    1.3760 H   0  0  0  0  0  0  0  0  0  0  0  0
   -2.6060    0.8570   -1.6680 H   0  0  0  0  0  0  0  0  0  0  0  0
   -4.2950    3.0180    0.9040 H   0  0  0  0  0  0  0  0  0  0  0  0
   -4.1630    2.7100   -0.8450 H   0  0  0  0  0  0  0  0  0  0  0  0
   -5.2750    0.7800    1.2450 H   0  0  0  0  0  0  0  0  0  0  0  0
   -6.2250    1.6870    0.0440 H   0  0  0  0  0  0  0  0  0  0  0  0
   -3.7280   -1.3160   -1.2850 H   0  0  0  0  0  0  0  0  0  0  0  0
   -3.8010   -0.9860    0.4630 H   0  0  0  0  0  0  0  0  0  0  0  0
   -0.5130   -3.4850   -2.6210 H   0  0  0  0  0  0  0  0  0  0  0  0
   -0.6910   -4.4190   -1.2350 H   0  0  0  0  0  0  0  0  0  0  0  0
   -1.0610   -4.5050    0.6270 H   0  0  0  0  0  0  0  0  0  0  0  0
   -0.5420   -3.5440    2.0330 H   0  0  0  0  0  0  0  0  0  0  0  0
   -2.2750   -3.7390    1.6780 H   0  0  0  0  0  0  0  0  0  0  0  0
 24 25  2  0  0  0  0
 17 18  1  0  0  0  0
 18 19  1  0  0  0  0
 14 17  1  0  0  0  0
 23 27  1  0  0  0  0
 13 14  1  0  0  0  0
 14 15  1  0  0  0  0
 23 24  1  0  0  0  0
 16 24  1  0  0  0  0
 19 20  1  0  0  0  0
 10 13  1  0  0  0  0
 15 20  1  0  0  0  0
 22 23  1  0  0  0  0
  9 10  2  0  0  0  0
 10 11  1  0  0  0  0
 15 16  1  0  0  0  0
  8  9  1  0  0  0  0
 11 16  1  0  0  0  0
 16 21  1  0  0  0  0
 11 12  2  0  0  0  0
  7  8  2  0  0  0  0
  2  3  2  0  0  0  0
  1  2  1  0  0  0  0
  7 12  1  0  0  0  0
  1  7  1  0  0  0  0
 21 22  2  0  0  0  0
 22 26  1  0  0  0  0
  3  4  1  0  0  0  0
  1  6  2  0  0  0  0
  4  5  2  0  0  0  0
  5  6  1  0  0  0  0
  6 28  1  0  0  0  0
  2 29  1  0  0  0  0
  3 30  1  0  0  0  0
  4 31  1  0  0  0  0
  8 32  1  0  0  0  0
  9 33  1  0  0  0  0
 12 34  1  0  0  0  0
 14 35  1  0  0  0  0
 15 36  1  0  0  0  0
 17 37  1  0  0  0  0
 17 38  1  0  0  0  0
 18 39  1  0  0  0  0
 18 40  1  0  0  0  0
 20 41  1  0  0  0  0
 20 42  1  0  0  0  0
 26 43  1  0  0  0  0
 26 44  1  0  0  0  0
 27 45  1  0  0  0  0
 27 46  1  0  0  0  0
 27 47  1  0  0  0  0
M  END
> <OPENEYE_ISO_SMILES>
CN1C(=O)[C@@]2(c3cc(ccc3O[C@@H]4[C@@H]2COCC4)c5cccnc5F)N=C1N

> <OPENEYE_INCHI>
InChI=1S/C20H19FN4O3/c1-25-18(26)20(24-19(25)22)13-9-11(12-3-2-7-23-17(12)21)4-5-15(13)28-16-6-8-27-10-14(16)20/h2-5,7,9,14,16H,6,8,10H2,1H3,(H2,22,24)/t14-,16-,20-/m0/s1

> <OPENEYE_INCHIKEY>
DWEUDIDNAOSEBW-UVFQYZLESA-N

> <FORMULA>
C20H19FN4O3

$$$$
