@<TRIPOS>MOLECULE
2EX
 47 51 0 0 0
SMALL
GASTEIGER

@<TRIPOS>ATOM
      1 C           3.5520    0.6560   -0.1420 C.ar    1  LIG1        0.0365
      2 C           4.4860    1.3230   -0.9380 C.ar    1  LIG1       -0.0483
      3 C           5.7830    0.8380   -0.9760 C.ar    1  LIG1       -0.0428
      4 C           6.1100   -0.2800   -0.2310 C.ar    1  LIG1        0.0307
      5 N           5.2080   -0.8910    0.5130 N.ar    1  LIG1       -0.2271
      6 C           3.9610   -0.4670    0.5810 C.ar    1  LIG1        0.2209
      7 C           2.1510    1.1360   -0.0600 C.ar    1  LIG1       -0.0130
      8 C           1.8860    2.4790    0.2000 C.ar    1  LIG1       -0.0504
      9 C           0.5820    2.9180    0.2740 C.ar    1  LIG1       -0.0189
     10 C          -0.4720    2.0290    0.0890 C.ar    1  LIG1        0.1283
     11 C          -0.2110    0.6910   -0.1690 C.ar    1  LIG1        0.0488
     12 C           1.0950    0.2480   -0.2490 C.ar    1  LIG1       -0.0430
     13 O          -1.7430    2.5040    0.1650 O.3     1  LIG1       -0.4878
     14 C          -2.7980    1.5630    0.3670 C.3     1  LIG1        0.1116
     15 C          -2.6380    0.4350   -0.6640 C.3     1  LIG1        0.0738
     16 C          -1.3300   -0.2940   -0.3700 C.3     1  LIG1        0.2512
     17 C          -4.1480    2.2510    0.1440 C.3     1  LIG1        0.0082
     18 C          -5.2660    1.2100    0.2440 C.3     1  LIG1        0.0510
     19 O          -5.0400    0.1750   -0.7160 O.3     1  LIG1       -0.3791
     20 C          -3.8130   -0.5350   -0.5300 C.3     1  LIG1        0.0583
     21 N          -1.0040   -1.2260   -1.4540 N.2     1  LIG1       -0.0934
     22 C          -0.9750   -2.4200   -0.9430 C.2     1  LIG1        0.3728
     23 N          -1.2480   -2.4280    0.4030 N.am    1  LIG1       -0.1617
     24 C          -1.4800   -1.1740    0.8500 C.2     1  LIG1        0.3262
     25 O          -1.7490   -0.8310    1.9810 O.2     1  LIG1       -0.2524
     26 N          -0.6990   -3.5520   -1.6710 N.pl3   1  LIG1       -0.2512
     27 C          -1.2840   -3.6310    1.2390 C.3     1  LIG1        0.0573
     28 F           3.0710   -1.1240    1.3570 F       1  LIG1       -0.1832
     29 H           4.2040    2.1940   -1.5100 H       1  LIG1        0.0625
     30 H           6.5310    1.3290   -1.5810 H       1  LIG1        0.0633
     31 H           7.1210   -0.6590   -0.2590 H       1  LIG1        0.0830
     32 H           2.7000    3.1740    0.3430 H       1  LIG1        0.0625
     33 H           0.3770    3.9590    0.4770 H       1  LIG1        0.0654
     34 H           1.2980   -0.7940   -0.4500 H       1  LIG1        0.0629
     35 H          -2.7430    1.1540    1.3760 H       1  LIG1        0.0739
     36 H          -2.6060    0.8570   -1.6680 H       1  LIG1        0.0406
     37 H          -4.2950    3.0180    0.9040 H       1  LIG1        0.0323
     38 H          -4.1630    2.7100   -0.8450 H       1  LIG1        0.0323
     39 H          -5.2750    0.7800    1.2450 H       1  LIG1        0.0561
     40 H          -6.2250    1.6870    0.0440 H       1  LIG1        0.0561
     41 H          -3.7280   -1.3160   -1.2850 H       1  LIG1        0.0565
     42 H          -3.8010   -0.9860    0.4630 H       1  LIG1        0.0565
     43 H          -0.5130   -3.4850   -2.6210 H       1  LIG1        0.2412
     44 H          -0.6910   -4.4190   -1.2350 H       1  LIG1        0.2412
     45 H          -1.0610   -4.5050    0.6270 H       1  LIG1        0.0602
     46 H          -0.5420   -3.5440    2.0330 H       1  LIG1        0.0602
     47 H          -2.2750   -3.7390    1.6780 H       1  LIG1        0.0602
@<TRIPOS>BOND
     1    24    25    2
     2    17    18    1
     3    18    19    1
     4    14    17    1
     5    23    27    1
     6    13    14    1
     7    14    15    1
     8    23    24   am
     9    16    24    1
    10    19    20    1
    11    10    13    1
    12    15    20    1
    13    22    23    1
    14     9    10   ar
    15    10    11   ar
    16    15    16    1
    17     8     9   ar
    18    11    16    1
    19    16    21    1
    20    11    12   ar
    21     7     8   ar
    22     2     3   ar
    23     1     2   ar
    24     7    12   ar
    25     1     7    1
    26    21    22    2
    27    22    26    1
    28     3     4   ar
    29     1     6   ar
    30     4     5   ar
    31     5     6   ar
    32     6    28    1
    33     2    29    1
    34     3    30    1
    35     4    31    1
    36     8    32    1
    37     9    33    1
    38    12    34    1
    39    14    35    1
    40    15    36    1
    41    17    37    1
    42    17    38    1
    43    18    39    1
    44    18    40    1
    45    20    41    1
    46    20    42    1
    47    26    43    1
    48    26    44    1
    49    27    45    1
    50    27    46    1
    51    27    47    1
