@<TRIPOS>MOLECULE
ESI
 21 22 0 0 0
SMALL
GASTEIGER

@<TRIPOS>ATOM
      1 C           8.7970    1.2810   25.0360 C.ar    1  UNL1        0.0991
      2 S           9.6560    1.9830   23.6060 S.2     1  UNL1       -0.0810
      3 C           9.6450    3.6150   24.2990 C.ar    1  UNL1        0.0211
      4 C           9.0170    3.5680   25.5340 C.ar    1  UNL1        0.0031
      5 C           8.5790    2.3240   25.9090 C.ar    1  UNL1       -0.0311
      6 C          10.1420    4.7830   23.7670 C.ar    1  UNL1       -0.0473
      7 C          10.0180    5.9530   24.5010 C.ar    1  UNL1       -0.0597
      8 C           9.3940    5.9330   25.7420 C.ar    1  UNL1       -0.0480
      9 C           8.8910    4.7490   26.2670 C.ar    1  UNL1        0.0216
     10 I           7.9900    4.8530   28.1720 I       1  UNL1       -0.0432
     11 C           8.4790   -0.0710   25.1140 C.2     1  UNL1        0.2729
     12 N           8.3840   -0.5710   26.3120 N.2     1  UNL1       -0.2880
     13 N           8.2830   -0.7660   24.0250 N.pl3   1  UNL1       -0.2493
     14 H           8.0719    2.1647   26.8721 H       1  UNL1        0.0638
     15 H          10.6275    4.7883   22.7800 H       1  UNL1        0.0629
     16 H          10.4141    6.8977   24.1002 H       1  UNL1        0.0618
     17 H           9.2969    6.8662   26.3162 H       1  UNL1        0.0628
     18 H           8.1512   -1.5664   26.4376 H       1  UNL1        0.3009
     19 H           8.5416    0.0288   27.1344 H       1  UNL1        0.3009
     20 H           8.0478   -1.7668   24.0881 H       1  UNL1        0.2883
     21 H           8.3637   -0.3131   23.1035 H       1  UNL1        0.2883
@<TRIPOS>UNITY_ATOM_ATTR
12 1
charge 1
@<TRIPOS>BOND
     1     2     1   ar
     2     3     2   ar
     3     4     3   ar
     4     5     4   ar
     5     5     1   ar
     6     6     3   ar
     7     7     6   ar
     8     8     7   ar
     9     9     4   ar
    10     9     8   ar
    11    10     9    1
    12    11     1    1
    13    12    11    2
    14    13    11    1
    15     5    14    1
    16     6    15    1
    17     7    16    1
    18     8    17    1
    19    12    18    1
    20    12    19    1
    21    13    20    1
    22    13    21    1
