@<TRIPOS>MOLECULE
FPT
 40 41 0 0 0
SMALL
GASTEIGER

@<TRIPOS>ATOM
      1 C          -0.0690  -36.3950   19.6870 C.ar    1  UNL1        0.1242
      2 N           0.0880  -36.3240   21.0640 N.ar    1  UNL1       -0.2389
      3 C          -0.9490  -35.9410   21.8910 C.ar    1  UNL1        0.0470
      4 C          -2.2010  -35.6250   21.3130 C.ar    1  UNL1        0.0699
      5 C          -2.3430  -35.6780   19.9140 C.ar    1  UNL1       -0.0396
      6 C          -1.2950  -36.0540   19.0930 C.ar    1  UNL1       -0.0203
      7 C          -3.3660  -35.3140   22.1310 C.1     1  UNL1        0.1007
      8 N          -4.3240  -35.0980   22.7580 N.1     1  UNL1       -0.1908
      9 N           0.8470  -36.9650   18.8790 N.am    1  UNL1       -0.2819
     10 C           1.6040  -38.0250   19.0170 C.2     1  UNL1        0.1356
     11 S           1.2190  -39.3040   20.0970 S.2     1  UNL1       -0.0185
     12 N           2.6690  -38.0520   18.2440 N.am    1  UNL1       -0.3259
     13 C           3.9330  -37.4350   18.6530 C.3     1  UNL1        0.0162
     14 C           5.1970  -38.1420   18.1280 C.3     1  UNL1        0.0081
     15 C           6.4560  -37.3450   18.3990 C.ar    1  UNL1        0.0814
     16 N           7.2240  -37.7320   19.4830 N.ar    1  UNL1       -0.2567
     17 C           8.3740  -37.0700   19.8620 C.ar    1  UNL1        0.0315
     18 C           8.7920  -35.9520   19.1360 C.ar    1  UNL1        0.0011
     19 C           8.0250  -35.5240   18.0290 C.ar    1  UNL1        0.1587
     20 C           6.8510  -36.2220   17.6280 C.ar    1  UNL1        0.1860
     21 F           6.1940  -35.8750   16.5010 F       1  UNL1       -0.1998
     22 O           8.3840  -34.3260   17.4120 O.3     1  UNL1       -0.4893
     23 C           9.2030  -33.4550   18.1910 C.3     1  UNL1        0.0869
     24 C           8.3840  -32.2470   18.6330 C.3     1  UNL1       -0.0307
     25 H          -0.8044  -35.8826   22.9799 H       1  UNL1        0.0843
     26 H          -3.3107  -35.4141   19.4623 H       1  UNL1        0.0632
     27 H          -1.4191  -36.0852   18.0005 H       1  UNL1        0.0652
     28 H           0.9762  -36.4738   17.9829 H       1  UNL1        0.1552
     29 H           2.6121  -38.5191   17.3278 H       1  UNL1        0.1477
     30 H           3.9428  -36.3986   18.2847 H       1  UNL1        0.0465
     31 H           3.9715  -37.5063   19.7500 H       1  UNL1        0.0465
     32 H           5.2852  -39.1213   18.6212 H       1  UNL1        0.0344
     33 H           5.0945  -38.2489   17.0380 H       1  UNL1        0.0344
     34 H           8.9560  -37.4193   20.7276 H       1  UNL1        0.0831
     35 H           9.7064  -35.4118   19.4224 H       1  UNL1        0.0670
     36 H           9.5707  -33.9928   19.0773 H       1  UNL1        0.0694
     37 H          10.0575  -33.1171   17.5863 H       1  UNL1        0.0694
     38 H           8.3558  -32.2053   19.7318 H       1  UNL1        0.0262
     39 H           8.8461  -31.3281   18.2430 H       1  UNL1        0.0262
     40 H           7.3593  -32.3361   18.2430 H       1  UNL1        0.0262
@<TRIPOS>BOND
     1     2     1   ar
     2     3     2   ar
     3     4     3   ar
     4     5     4   ar
     5     6     5   ar
     6     6     1   ar
     7     7     4    1
     8     8     7    3
     9     9     1    1
    10    10     9    1
    11    11    10    2
    12    12    10    1
    13    13    12    1
    14    14    13    1
    15    15    14    1
    16    16    15   ar
    17    17    16   ar
    18    18    17   ar
    19    19    18   ar
    20    20    19   ar
    21    20    15   ar
    22    21    20    1
    23    22    19    1
    24    23    22    1
    25    24    23    1
    26     3    25    1
    27     5    26    1
    28     6    27    1
    29     9    28    1
    30    12    29    1
    31    13    30    1
    32    13    31    1
    33    14    32    1
    34    14    33    1
    35    17    34    1
    36    18    35    1
    37    23    36    1
    38    23    37    1
    39    24    38    1
    40    24    39    1
    41    24    40    1
