@<TRIPOS>MOLECULE
XMK
 60 63 0 0 0
SMALL
GASTEIGER

@<TRIPOS>ATOM
      1 C           7.5430   12.3580   19.4630 C.3     1  UNL1        0.0134
      2 C           6.7760   11.9050   18.1850 C.3     1  UNL1        0.0333
      3 N           5.3280   11.4770   18.3860 N.3     1  UNL1       -0.1747
      4 C           5.8240   11.3070   20.9480 C.3     1  UNL1        0.0134
      5 C           4.9730   10.8620   19.7240 C.3     1  UNL1        0.0333
      6 N           7.2850   11.4640   20.6560 N.3     1  UNL1       -0.2995
      7 C           8.0240   11.8730   21.8900 C.3     1  UNL1        0.0019
      8 C           9.1350   10.9380   22.4990 C.3     1  UNL1       -0.0254
      9 C          10.0040   11.5690   23.6600 C.3     1  UNL1       -0.0332
     10 C          11.1050   10.5800   24.2250 C.3     1  UNL1        0.0125
     11 N          10.6540    9.1180   24.4980 N.pl3   1  UNL1       -0.3298
     12 C           9.5620    8.5520   23.5480 C.3     1  UNL1        0.0125
     13 C           8.5150    9.5540   22.9370 C.3     1  UNL1       -0.0332
     14 C          11.2500    8.2800   25.6280 C.ar    1  UNL1        0.0326
     15 C          10.4140    7.3370   26.4370 C.ar    1  UNL1       -0.0225
     16 C          11.0330    6.5600   27.4990 C.ar    1  UNL1        0.0293
     17 N          12.3930    6.6570   27.8010 N.ar    1  UNL1       -0.2631
     18 C          13.2130    7.5210   27.0760 C.ar    1  UNL1        0.0293
     19 C          12.7020    8.3470   25.9930 C.ar    1  UNL1       -0.0225
     20 S           4.6100   10.6310   17.0410 S.O2    1  UNL1        0.0542
     21 O           5.4090   10.8890   15.7530 O.2     1  UNL1       -0.1534
     22 O           3.1890   11.1680   16.8420 O.2     1  UNL1       -0.1534
     23 C           4.5770    8.9040   17.4400 C.2     1  UNL1        0.0699
     24 C           5.0650    7.9190   16.6300 C.2     1  UNL1       -0.0355
     25 C           5.0340    6.4220   16.9630 C.ar    1  UNL1       -0.0237
     26 C           4.0210    5.8060   17.8670 C.ar    1  UNL1       -0.0532
     27 C           4.0370    4.3820   18.1450 C.ar    1  UNL1       -0.0428
     28 C           5.0500    3.4970   17.5480 C.ar    1  UNL1        0.0410
     29 CL          5.0510    1.7810   17.8900 Cl      1  UNL1       -0.0835
     30 C           6.0550    4.0920   16.6550 C.ar    1  UNL1       -0.0428
     31 C           6.0450    5.5310   16.3680 C.ar    1  UNL1       -0.0532
     32 H           8.6213   12.3500   19.2458 H       1  UNL1        0.0440
     33 H           7.1836   13.3647   19.7227 H       1  UNL1        0.0440
     34 H           6.7822   12.7448   17.4745 H       1  UNL1        0.0456
     35 H           7.3018   11.0068   17.8290 H       1  UNL1        0.0456
     36 H           5.4375   12.2735   21.3037 H       1  UNL1        0.0440
     37 H           5.7361   10.5096   21.7006 H       1  UNL1        0.0440
     38 H           3.9240   11.1143   19.9385 H       1  UNL1        0.0456
     39 H           5.1740    9.7866   19.6091 H       1  UNL1        0.0456
     40 H           8.5092   12.8339   21.6637 H       1  UNL1        0.0429
     41 H           7.2413   11.8655   22.6628 H       1  UNL1        0.0429
     42 H           9.8540   10.7860   21.6805 H       1  UNL1        0.0314
     43 H          10.5071   12.4668   23.2715 H       1  UNL1        0.0283
     44 H           9.3201   11.8040   24.4889 H       1  UNL1        0.0283
     45 H          11.9275   10.5446   23.4955 H       1  UNL1        0.0464
     46 H          11.3818   10.9863   25.2090 H       1  UNL1        0.0464
     47 H          10.0804    8.0691   22.7066 H       1  UNL1        0.0464
     48 H           8.9620    7.8883   24.1880 H       1  UNL1        0.0464
     49 H           8.0597    9.0831   22.0532 H       1  UNL1        0.0283
     50 H           7.7799    9.7688   23.7266 H       1  UNL1        0.0283
     51 H           9.3388    7.2328   26.2293 H       1  UNL1        0.0651
     52 H          10.4075    5.8711   28.0856 H       1  UNL1        0.0830
     53 H          14.2813    7.5799   27.3314 H       1  UNL1        0.0830
     54 H          13.3788    9.0182   25.4441 H       1  UNL1        0.0651
     55 H           4.1348    8.6067   18.4023 H       1  UNL1        0.0835
     56 H           5.5119    8.2203   15.6711 H       1  UNL1        0.0637
     57 H           3.2505    6.4401   18.3298 H       1  UNL1        0.0624
     58 H           3.2766    3.9553   18.8156 H       1  UNL1        0.0632
     59 H           6.8229    3.4513   16.1969 H       1  UNL1        0.0632
     60 H           6.8069    5.9524   15.6958 H       1  UNL1        0.0624
@<TRIPOS>BOND
     1     2     1    1
     2     3     2    1
     3     5     3    1
     4     5     4    1
     5     6     4    1
     6     6     1    1
     7     7     6    1
     8     8     7    1
     9     9     8    1
    10    10     9    1
    11    11    10    1
    12    12    11    1
    13    13    12    1
    14    13     8    1
    15    14    11    1
    16    15    14   ar
    17    16    15   ar
    18    17    16   ar
    19    18    17   ar
    20    19    18   ar
    21    19    14   ar
    22    20     3    1
    23    21    20    2
    24    22    20    2
    25    23    20    1
    26    24    23    2
    27    25    24    1
    28    26    25   ar
    29    27    26   ar
    30    28    27   ar
    31    29    28    1
    32    30    28   ar
    33    31    25   ar
    34    31    30   ar
    35     1    32    1
    36     1    33    1
    37     2    34    1
    38     2    35    1
    39     4    36    1
    40     4    37    1
    41     5    38    1
    42     5    39    1
    43     7    40    1
    44     7    41    1
    45     8    42    1
    46     9    43    1
    47     9    44    1
    48    10    45    1
    49    10    46    1
    50    12    47    1
    51    12    48    1
    52    13    49    1
    53    13    50    1
    54    15    51    1
    55    16    52    1
    56    18    53    1
    57    19    54    1
    58    23    55    1
    59    24    56    1
    60    26    57    1
    61    27    58    1
    62    30    59    1
    63    31    60    1
