@<TRIPOS>MOLECULE
3CB
 78 79 0 0 0
SMALL
GASTEIGER

@<TRIPOS>ATOM
      1 O          30.0660    7.2390    7.3730 O.2     1  UNL1       -0.2740
      2 C          30.9280    6.4090    7.0740 C.2     1  UNL1        0.2325
      3 N          31.9000    5.9690    7.9260 N.am    1  UNL1       -0.3027
      4 C          30.9370    5.7920    5.6570 C.3     1  UNL1        0.1069
      5 C          29.4540    5.4100    5.3280 C.3     1  UNL1       -0.0186
      6 C          29.2620    3.9590    4.8220 C.3     1  UNL1       -0.0605
      7 C          28.7830    6.4250    4.4050 C.3     1  UNL1       -0.0514
      8 C          27.3970    6.8030    4.9230 C.3     1  UNL1       -0.0650
      9 N          31.3980    6.7570    4.6430 N.3     1  UNL1       -0.1821
     10 S          32.8080    6.4160    3.6940 S.O2    1  UNL1        0.0342
     11 O          32.5720    5.1090    3.2010 O.2     1  UNL1       -0.1579
     12 O          32.9100    7.5000    2.7880 O.2     1  UNL1       -0.1579
     13 C          34.2000    6.3630    4.7770 C.3     1  UNL1        0.1067
     14 C          34.8430    7.6760    5.0100 C.ar    1  UNL1       -0.0243
     15 C          34.4280    8.4710    6.0860 C.ar    1  UNL1       -0.0430
     16 C          35.0660    9.6910    6.3560 C.ar    1  UNL1        0.0591
     17 C          36.1530   10.0970    5.5540 C.ar    1  UNL1       -0.0478
     18 C          36.5760    9.3090    4.4700 C.ar    1  UNL1       -0.0607
     19 C          35.9040    8.1030    4.1900 C.ar    1  UNL1       -0.0569
     20 C          34.6030   10.5310    7.4580 C.2     1  UNL1        0.3368
     21 O          33.9080   10.0240    8.3380 O.2     1  UNL1       -0.2451
     22 O          34.9330   11.7160    7.4690 O.3     1  UNL1       -0.4771
     23 C          31.7570    6.4720    9.2930 C.3     1  UNL1        0.0999
     24 C          30.6680    5.7910   10.1150 C.3     1  UNL1       -0.0151
     25 C          29.8320    6.7810   10.9120 C.3     1  UNL1        0.0521
     26 C          29.7640    6.4570   12.3700 C.2     1  UNL1        0.2761
     27 N          28.9930    7.2400   13.1240 N.2     1  UNL1       -0.1041
     28 N          30.3960    5.4130   12.8990 N.pl3   1  UNL1       -0.2508
     29 C          33.1230    6.3520    9.9650 C.2     1  UNL1        0.2336
     30 O          33.2400    5.7910   11.0570 O.2     1  UNL1       -0.2738
     31 N          34.1270    6.8980    9.2570 N.am    1  UNL1       -0.3097
     32 C          35.4430    7.0550    9.8700 C.3     1  UNL1        0.0369
     33 C          36.5400    7.0550    8.8450 C.ar    1  UNL1       -0.0303
     34 C          36.6270    5.9520    7.9820 C.ar    1  UNL1       -0.0563
     35 C          37.5530    5.9430    6.9420 C.ar    1  UNL1       -0.0466
     36 C          38.4390    7.0220    6.7350 C.ar    1  UNL1        0.0647
     37 C          38.3990    8.1110    7.6410 C.ar    1  UNL1       -0.0466
     38 C          37.4410    8.1340    8.6830 C.ar    1  UNL1       -0.0563
     39 C          39.3750    6.9840    5.5640 C.2     1  UNL1        0.3081
     40 N          38.9990    6.4670    4.3810 N.2     1  UNL1       -0.0994
     41 N          40.6250    7.4380    5.6700 N.pl3   1  UNL1       -0.2466
     42 H          32.6291    5.3693    7.6468 H       1  UNL1        0.1495
     43 H          31.6001    4.9524    5.6376 H       1  UNL1        0.0575
     44 H          28.9519    5.4473    6.2722 H       1  UNL1        0.0318
     45 H          29.7425    3.8458    3.8727 H       1  UNL1        0.0233
     46 H          28.2172    3.7522    4.7199 H       1  UNL1        0.0233
     47 H          29.6937    3.2764    5.5239 H       1  UNL1        0.0233
     48 H          28.6874    5.9997    3.4278 H       1  UNL1        0.0266
     49 H          29.3871    7.3075    4.3722 H       1  UNL1        0.0266
     50 H          26.7802    5.9295    4.9616 H       1  UNL1        0.0230
     51 H          26.9550    7.5230    4.2664 H       1  UNL1        0.0230
     52 H          27.4847    7.2213    5.9039 H       1  UNL1        0.0230
     53 H          31.5781    7.6337    5.1323 H       1  UNL1        0.1485
     54 H          34.9287    5.7038    4.3536 H       1  UNL1        0.0565
     55 H          33.8364    6.0280    5.7259 H       1  UNL1        0.0565
     56 H          33.6477    8.1572    6.6841 H       1  UNL1        0.0629
     57 H          36.6421   10.9808    5.7652 H       1  UNL1        0.0626
     58 H          37.3708    9.6108    3.8850 H       1  UNL1        0.0618
     59 H          36.1908    7.5306    3.3806 H       1  UNL1        0.0621
     60 H          35.4636   12.0610    6.7781 H       1  UNL1        0.2954
     61 H          31.4312    7.4898    9.2402 H       1  UNL1        0.0595
     62 H          31.1297    5.1064   10.7955 H       1  UNL1        0.0293
     63 H          30.0136    5.2887    9.4335 H       1  UNL1        0.0293
     64 H          28.8375    6.7812   10.5172 H       1  UNL1        0.0387
     65 H          30.3015    7.7382   10.8212 H       1  UNL1        0.0387
     66 H          28.5302    8.0099   12.7212 H       1  UNL1        0.3629
     67 H          30.9629    4.8417   12.3320 H       1  UNL1        0.2881
     68 H          30.2969    5.2116   13.8576 H       1  UNL1        0.2881
     69 H          33.9756    7.1907    8.3293 H       1  UNL1        0.1491
     70 H          35.6061    6.2465   10.5516 H       1  UNL1        0.0512
     71 H          35.4628    7.9966   10.3778 H       1  UNL1        0.0512
     72 H          36.0012    5.1429    8.1188 H       1  UNL1        0.0621
     73 H          37.5923    5.1293    6.3085 H       1  UNL1        0.0626
     74 H          39.0697    8.8889    7.5409 H       1  UNL1        0.0626
     75 H          37.3996    8.9399    9.3263 H       1  UNL1        0.0621
     76 H          38.0847    6.1216    4.2630 H       1  UNL1        0.3633
     77 H          40.9382    7.8238    6.5199 H       1  UNL1        0.2884
     78 H          41.2343    7.3872    4.8983 H       1  UNL1        0.2884
@<TRIPOS>BOND
     1     2     1    2
     2     3     2   am
     3     4     2    1
     4     5     4    1
     5     6     5    1
     6     7     5    1
     7     8     7    1
     8     9     4    1
     9    10     9    1
    10    11    10    2
    11    12    10    2
    12    13    10    1
    13    14    13    1
    14    15    14   ar
    15    16    15   ar
    16    17    16   ar
    17    18    17   ar
    18    19    18   ar
    19    19    14   ar
    20    20    16    1
    21    21    20    2
    22    22    20    1
    23    23     3    1
    24    24    23    1
    25    25    24    1
    26    26    25    1
    27    27    26    2
    28    28    26    1
    29    29    23    1
    30    30    29    2
    31    31    29   am
    32    32    31    1
    33    33    32    1
    34    34    33   ar
    35    35    34   ar
    36    36    35   ar
    37    37    36   ar
    38    38    33   ar
    39    38    37   ar
    40    39    36    1
    41    40    39    2
    42    41    39    1
    43     3    42    1
    44     4    43    1
    45     5    44    1
    46     6    45    1
    47     6    46    1
    48     6    47    1
    49     7    48    1
    50     7    49    1
    51     8    50    1
    52     8    51    1
    53     8    52    1
    54     9    53    1
    55    13    54    1
    56    13    55    1
    57    15    56    1
    58    17    57    1
    59    18    58    1
    60    19    59    1
    61    22    60    1
    62    23    61    1
    63    24    62    1
    64    24    63    1
    65    25    64    1
    66    25    65    1
    67    27    66    1
    68    28    67    1
    69    28    68    1
    70    31    69    1
    71    32    70    1
    72    32    71    1
    73    34    72    1
    74    35    73    1
    75    37    74    1
    76    38    75    1
    77    40    76    1
    78    41    77    1
    79    41    78    1
