@<TRIPOS>MOLECULE
BRL
 44 46 0 0 0
SMALL
GASTEIGER

@<TRIPOS>ATOM
      1 C           6.4180   -2.7690   38.8290 C.ar    1  UNL1       -0.0456
      2 C           5.4080   -1.7700   39.1150 C.ar    1  UNL1       -0.0551
      3 C           4.4790   -1.9610   40.1780 C.ar    1  UNL1       -0.0197
      4 C           4.5340   -3.1890   40.9820 C.ar    1  UNL1        0.1206
      5 C           5.5560   -4.1540   40.7190 C.ar    1  UNL1       -0.0197
      6 C           6.4820   -3.9550   39.6640 C.ar    1  UNL1       -0.0551
      7 O           3.6290   -3.5680   42.0150 O.3     1  UNL1       -0.4904
      8 C           3.2450   -4.9820   42.1420 C.3     1  UNL1        0.1052
      9 C           3.3400   -5.3660   43.6430 C.3     1  UNL1        0.0474
     10 N           4.4410   -6.3790   43.9470 N.pl3   1  UNL1       -0.3150
     11 C           4.0400   -7.6960   44.5730 C.3     1  UNL1        0.0021
     12 C           5.9470   -6.0880   43.6060 C.ar    1  UNL1        0.1211
     13 N           6.6690   -6.9240   42.7200 N.ar    1  UNL1       -0.2403
     14 C           7.9840   -6.6690   42.4130 C.ar    1  UNL1        0.0297
     15 C           8.6900   -5.5760   42.9800 C.ar    1  UNL1       -0.0435
     16 C           8.0200   -4.7000   43.8650 C.ar    1  UNL1       -0.0571
     17 C           6.6630   -4.9370   44.1890 C.ar    1  UNL1       -0.0217
     18 C           7.3780   -2.6010   37.6060 C.3     1  UNL1       -0.0069
     19 C           7.9460   -4.0750   37.1130 C.3     1  UNL1        0.0945
     20 S           9.7650   -4.0680   37.0120 S.3     1  UNL1       -0.0542
     21 C           9.7580   -4.5250   35.3000 C.2     1  UNL1        0.2789
     22 O          10.7940   -4.7060   34.6570 O.2     1  UNL1       -0.2625
     23 N           8.5480   -4.7090   34.7610 N.am    1  UNL1       -0.2463
     24 C           7.5310   -4.4740   35.6500 C.2     1  UNL1        0.2336
     25 O           6.3610   -4.6200   35.3180 O.2     1  UNL1       -0.2741
     26 H           5.3582   -0.8556   38.5056 H       1  UNL1        0.0621
     27 H           3.7234   -1.1918   40.3958 H       1  UNL1        0.0654
     28 H           5.6243   -5.0588   41.3408 H       1  UNL1        0.0654
     29 H           7.2598   -4.7097   39.4755 H       1  UNL1        0.0621
     30 H           2.2146   -5.1236   41.7839 H       1  UNL1        0.0712
     31 H           3.9115   -5.6169   41.5398 H       1  UNL1        0.0712
     32 H           3.5378   -4.4529   44.2236 H       1  UNL1        0.0497
     33 H           2.3843   -5.8371   43.9162 H       1  UNL1        0.0497
     34 H           4.0678   -7.6046   45.6688 H       1  UNL1        0.0428
     35 H           3.0211   -7.9590   44.2527 H       1  UNL1        0.0428
     36 H           4.7395   -8.4823   44.2527 H       1  UNL1        0.0428
     37 H           8.5051   -7.3319   41.7066 H       1  UNL1        0.0830
     38 H           9.7493   -5.4118   42.7331 H       1  UNL1        0.0633
     39 H           8.5504   -3.8396   44.2990 H       1  UNL1        0.0619
     40 H           6.1391   -4.2595   44.8792 H       1  UNL1        0.0652
     41 H           6.8305   -2.1278   36.7776 H       1  UNL1        0.0329
     42 H           8.2295   -1.9716   37.9041 H       1  UNL1        0.0329
     43 H           7.5234   -4.7671   37.8562 H       1  UNL1        0.0515
     44 H           8.3964   -4.9962   33.7835 H       1  UNL1        0.1583
@<TRIPOS>BOND
     1     2     1   ar
     2     3     2   ar
     3     4     3   ar
     4     5     4   ar
     5     6     5   ar
     6     6     1   ar
     7     7     4    1
     8     8     7    1
     9     9     8    1
    10    10     9    1
    11    11    10    1
    12    12    10    1
    13    13    12   ar
    14    14    13   ar
    15    15    14   ar
    16    16    15   ar
    17    17    12   ar
    18    17    16   ar
    19    18     1    1
    20    19    18    1
    21    20    19    1
    22    21    20    1
    23    22    21    2
    24    23    21   am
    25    24    23   am
    26    24    19    1
    27    25    24    2
    28     2    26    1
    29     3    27    1
    30     5    28    1
    31     6    29    1
    32     8    30    1
    33     8    31    1
    34     9    32    1
    35     9    33    1
    36    11    34    1
    37    11    35    1
    38    11    36    1
    39    14    37    1
    40    15    38    1
    41    16    39    1
    42    17    40    1
    43    18    41    1
    44    18    42    1
    45    19    43    1
    46    23    44    1
