@<TRIPOS>MOLECULE
NVP
 34 37 0 0 0
SMALL
GASTEIGER

@<TRIPOS>ATOM
      1 C           4.2930  -38.3030   17.4580 C.3     1  UNL1       -0.0378
      2 O           5.9260  -42.3410   19.1290 O.2     1  UNL1       -0.2697
      3 N           8.3920  -40.9630   16.1610 N.pl3   1  UNL1       -0.2649
      4 C           7.4310  -39.8540   15.9120 C.ar    1  UNL1        0.1485
      5 N           7.6690  -39.0260   14.8710 N.ar    1  UNL1       -0.2380
      6 C           6.8340  -37.9820   14.6710 C.ar    1  UNL1        0.0301
      7 C           5.7380  -37.7230   15.4910 C.ar    1  UNL1       -0.0388
      8 C           5.4870  -38.5570   16.5540 C.ar    1  UNL1       -0.0244
      9 C           6.3380  -39.6430   16.7790 C.ar    1  UNL1        0.0774
     10 N           6.1040  -40.4800   17.9020 N.am    1  UNL1       -0.2784
     11 C           6.2530  -41.7920   18.0680 C.2     1  UNL1        0.2517
     12 C           6.7680  -42.6610   16.9280 C.ar    1  UNL1        0.0772
     13 C           6.2870  -43.9700   16.8360 C.ar    1  UNL1       -0.0449
     14 C           6.8960  -44.8520   16.0140 C.ar    1  UNL1       -0.0427
     15 C           7.9940  -44.4300   15.2820 C.ar    1  UNL1        0.0297
     16 N           8.4830  -43.1720   15.3330 N.ar    1  UNL1       -0.2392
     17 C           7.8770  -42.2910   16.1380 C.ar    1  UNL1        0.1390
     18 C           9.6880  -40.8110   15.5060 C.3     1  UNL1        0.0314
     19 C          10.8790  -41.2030   16.2980 C.3     1  UNL1       -0.0322
     20 C          10.5890  -39.7590   16.0590 C.3     1  UNL1       -0.0322
     21 H           4.6085  -38.3701   18.5097 H       1  UNL1        0.0278
     22 H           3.8898  -37.2990   17.2595 H       1  UNL1        0.0278
     23 H           3.5161  -39.0560   17.2595 H       1  UNL1        0.0278
     24 H           7.0284  -37.3076   13.8240 H       1  UNL1        0.0830
     25 H           5.0825  -36.8627   15.2904 H       1  UNL1        0.0636
     26 H           5.7577  -39.9839   18.7356 H       1  UNL1        0.1552
     27 H           5.4155  -44.2809   17.4309 H       1  UNL1        0.0627
     28 H           6.5275  -45.8848   15.9275 H       1  UNL1        0.0633
     29 H           8.4935  -45.1573   14.6251 H       1  UNL1        0.0830
     30 H           9.3040  -41.0600   14.5057 H       1  UNL1        0.0505
     31 H          10.7538  -41.6294   17.3042 H       1  UNL1        0.0284
     32 H          11.7441  -41.8604   16.1263 H       1  UNL1        0.0284
     33 H          10.2477  -39.1210   16.8875 H       1  UNL1        0.0284
     34 H          11.1480  -38.9104   15.6378 H       1  UNL1        0.0284
@<TRIPOS>BOND
     1     4     3    1
     2     5     4   ar
     3     6     5   ar
     4     7     6   ar
     5     8     1    1
     6     8     7   ar
     7     9     4   ar
     8     9     8   ar
     9    10     9    1
    10    11    10   am
    11    11     2    2
    12    12    11    1
    13    13    12   ar
    14    14    13   ar
    15    15    14   ar
    16    16    15   ar
    17    17    16   ar
    18    17     3    1
    19    17    12   ar
    20    18     3    1
    21    19    18    1
    22    20    19    1
    23    20    18    1
    24     1    21    1
    25     1    22    1
    26     1    23    1
    27     6    24    1
    28     7    25    1
    29    10    26    1
    30    13    27    1
    31    14    28    1
    32    15    29    1
    33    18    30    1
    34    19    31    1
    35    19    32    1
    36    20    33    1
    37    20    34    1
