NVP
 OpenBabel06142216233D

 34 37  0  0  0  0  0  0  0  0999 V2000
    4.2930  -38.3030   17.4580 C   0  0  0  0  0  0  0  0  0  0  0  0
    5.9260  -42.3410   19.1290 O   0  0  0  0  0  0  0  0  0  0  0  0
    8.3920  -40.9630   16.1610 N   0  0  0  0  0  0  0  0  0  0  0  0
    7.4310  -39.8540   15.9120 C   0  0  0  0  0  0  0  0  0  0  0  0
    7.6690  -39.0260   14.8710 N   0  0  0  0  0  0  0  0  0  0  0  0
    6.8340  -37.9820   14.6710 C   0  0  0  0  0  0  0  0  0  0  0  0
    5.7380  -37.7230   15.4910 C   0  0  0  0  0  0  0  0  0  0  0  0
    5.4870  -38.5570   16.5540 C   0  0  0  0  0  0  0  0  0  0  0  0
    6.3380  -39.6430   16.7790 C   0  0  0  0  0  0  0  0  0  0  0  0
    6.1040  -40.4800   17.9020 N   0  0  0  0  0  0  0  0  0  0  0  0
    6.2530  -41.7920   18.0680 C   0  0  0  0  0  0  0  0  0  0  0  0
    6.7680  -42.6610   16.9280 C   0  0  0  0  0  0  0  0  0  0  0  0
    6.2870  -43.9700   16.8360 C   0  0  0  0  0  0  0  0  0  0  0  0
    6.8960  -44.8520   16.0140 C   0  0  0  0  0  0  0  0  0  0  0  0
    7.9940  -44.4300   15.2820 C   0  0  0  0  0  0  0  0  0  0  0  0
    8.4830  -43.1720   15.3330 N   0  0  0  0  0  0  0  0  0  0  0  0
    7.8770  -42.2910   16.1380 C   0  0  0  0  0  0  0  0  0  0  0  0
    9.6880  -40.8110   15.5060 C   0  0  0  0  0  0  0  0  0  0  0  0
   10.8790  -41.2030   16.2980 C   0  0  0  0  0  0  0  0  0  0  0  0
   10.5890  -39.7590   16.0590 C   0  0  0  0  0  0  0  0  0  0  0  0
    4.6085  -38.3701   18.5097 H   0  0  0  0  0  0  0  0  0  0  0  0
    3.8898  -37.2990   17.2595 H   0  0  0  0  0  0  0  0  0  0  0  0
    3.5161  -39.0560   17.2595 H   0  0  0  0  0  0  0  0  0  0  0  0
    7.0284  -37.3076   13.8240 H   0  0  0  0  0  0  0  0  0  0  0  0
    5.0825  -36.8627   15.2904 H   0  0  0  0  0  0  0  0  0  0  0  0
    5.7577  -39.9839   18.7356 H   0  0  0  0  0  0  0  0  0  0  0  0
    5.4155  -44.2809   17.4309 H   0  0  0  0  0  0  0  0  0  0  0  0
    6.5275  -45.8848   15.9275 H   0  0  0  0  0  0  0  0  0  0  0  0
    8.4935  -45.1573   14.6251 H   0  0  0  0  0  0  0  0  0  0  0  0
    9.3040  -41.0600   14.5057 H   0  0  0  0  0  0  0  0  0  0  0  0
   10.7538  -41.6294   17.3042 H   0  0  0  0  0  0  0  0  0  0  0  0
   11.7441  -41.8604   16.1263 H   0  0  0  0  0  0  0  0  0  0  0  0
   10.2477  -39.1210   16.8875 H   0  0  0  0  0  0  0  0  0  0  0  0
   11.1480  -38.9104   15.6378 H   0  0  0  0  0  0  0  0  0  0  0  0
  1 21  1  0  0  0  0
  1 22  1  0  0  0  0
  1 23  1  0  0  0  0
  4  3  1  0  0  0  0
  5  4  2  0  0  0  0
  6  5  1  0  0  0  0
  6 24  1  0  0  0  0
  7  6  2  0  0  0  0
  7 25  1  0  0  0  0
  8  1  1  0  0  0  0
  8  7  1  0  0  0  0
  9  4  1  0  0  0  0
  9  8  2  0  0  0  0
 10  9  1  0  0  0  0
 10 26  1  0  0  0  0
 11 10  1  0  0  0  0
 11  2  2  0  0  0  0
 12 11  1  0  0  0  0
 13 12  2  0  0  0  0
 13 27  1  0  0  0  0
 14 13  1  0  0  0  0
 14 28  1  0  0  0  0
 15 14  2  0  0  0  0
 15 29  1  0  0  0  0
 16 15  1  0  0  0  0
 17 16  2  0  0  0  0
 17  3  1  0  0  0  0
 17 12  1  0  0  0  0
 18  3  1  0  0  0  0
 18 30  1  0  0  0  0
 19 18  1  0  0  0  0
 19 31  1  0  0  0  0
 19 32  1  0  0  0  0
 20 19  1  0  0  0  0
 20 18  1  0  0  0  0
 20 33  1  0  0  0  0
 20 34  1  0  0  0  0
M  END
$$$$
