@<TRIPOS>MOLECULE
00P
 62 65 0 0 0
SMALL
GASTEIGER

@<TRIPOS>ATOM
      1 N          15.3660  -13.4070   19.2980 N.ar    1  UNL1       -0.2422
      2 C          16.1930  -12.7200   18.4030 C.ar    1  UNL1        0.3482
      3 O          15.9860  -11.6480   17.8420 O.2     1  UNL1       -0.2447
      4 N          17.3510  -13.4930   18.2530 N.ar    1  UNL1       -0.2260
      5 N          17.2190  -14.6200   19.0570 N.ar    1  UNL1       -0.2145
      6 C          16.0000  -14.5690   19.7040 C.ar    1  UNL1        0.3489
      7 O          15.6250  -15.4050   20.5060 O.2     1  UNL1       -0.2447
      8 C          18.2290  -13.5050   17.0920 C.3     1  UNL1        0.0632
      9 C          19.4860  -14.2710   17.4330 C.2     1  UNL1       -0.0643
     10 C          19.4750  -15.1740   18.4300 C.2     1  UNL1       -0.0531
     11 C          18.2820  -15.5940   19.2420 C.3     1  UNL1        0.1499
     12 C          14.1060  -12.8940   19.8130 C.3     1  UNL1        0.0522
     13 C          14.2100  -11.9010   20.9590 C.3     1  UNL1        0.0890
     14 S          13.2910  -12.7880   22.1740 S.O2    1  UNL1       -0.0014
     15 O          12.2260  -13.5800   21.6290 O.2     1  UNL1       -0.1693
     16 O          14.2860  -13.4710   23.0340 O.2     1  UNL1       -0.1693
     17 C          12.5300  -11.6390   23.3130 C.ar    1  UNL1        0.0882
     18 C          12.6120  -10.2700   23.0930 C.ar    1  UNL1       -0.0369
     19 C          11.9720   -9.4070   23.9810 C.ar    1  UNL1       -0.0600
     20 C          11.2620   -9.9070   25.0680 C.ar    1  UNL1       -0.0616
     21 C          11.1740  -11.2800   25.2860 C.ar    1  UNL1       -0.0600
     22 C          11.8040  -12.1440   24.3990 C.ar    1  UNL1       -0.0369
     23 C          18.7310  -15.5320   20.7420 C.2     1  UNL1        0.2417
     24 N          19.2850  -14.3110   21.1860 N.am    1  UNL1       -0.3130
     25 O          18.7540  -16.5310   21.4440 O.2     1  UNL1       -0.2731
     26 C          18.9440  -13.6690   22.4550 C.3     1  UNL1        0.0145
     27 C          19.7650  -14.1090   23.7210 C.3     1  UNL1       -0.0253
     28 C          21.1740  -14.6530   23.3250 C.3     1  UNL1       -0.0474
     29 C          21.9020  -15.4600   24.4570 C.3     1  UNL1       -0.0375
     30 C          20.9440  -16.5780   24.9470 C.3     1  UNL1        0.0049
     31 N          21.6320  -17.5990   25.7490 N.3     1  UNL1       -0.3272
     32 C          19.7910  -15.8770   25.6780 C.3     1  UNL1       -0.0375
     33 C          18.9480  -15.0770   24.6380 C.3     1  UNL1       -0.0474
     34 H          17.7180  -13.9919   16.2483 H       1  UNL1        0.0554
     35 H          18.4874  -12.4733   16.8111 H       1  UNL1        0.0554
     36 H          20.4108  -14.0901   16.8655 H       1  UNL1        0.0588
     37 H          20.4345  -15.6526   18.6754 H       1  UNL1        0.0595
     38 H          17.9292  -16.5939   18.9491 H       1  UNL1        0.0687
     39 H          13.5807  -12.3974   18.9839 H       1  UNL1        0.0511
     40 H          13.5760  -13.7662   20.2233 H       1  UNL1        0.0511
     41 H          15.2525  -11.7362   21.2690 H       1  UNL1        0.0522
     42 H          13.8488  -10.8853   20.7400 H       1  UNL1        0.0522
     43 H          13.1721   -9.8739   22.2332 H       1  UNL1        0.0636
     44 H          12.0288   -8.3202   23.8208 H       1  UNL1        0.0618
     45 H          10.7658   -9.2120   25.7614 H       1  UNL1        0.0618
     46 H          10.6144  -11.6740   26.1471 H       1  UNL1        0.0618
     47 H          11.7322  -13.2311   24.5506 H       1  UNL1        0.0636
     48 H          19.9723  -13.8434   20.5779 H       1  UNL1        0.1488
     49 H          19.0861  -12.5857   22.3275 H       1  UNL1        0.0465
     50 H          17.9096  -13.9799   22.6633 H       1  UNL1        0.0465
     51 H          19.9501  -13.2155   24.3353 H       1  UNL1        0.0316
     52 H          21.0546  -15.3143   22.4541 H       1  UNL1        0.0269
     53 H          21.8009  -13.7739   23.1150 H       1  UNL1        0.0269
     54 H          22.8252  -15.9078   24.0605 H       1  UNL1        0.0280
     55 H          22.1654  -14.7925   25.2907 H       1  UNL1        0.0280
     56 H          20.5436  -17.1558   24.1010 H       1  UNL1        0.0458
     57 H          21.4966  -17.3980   26.7501 H       1  UNL1        0.1185
     58 H          21.2434  -18.5273   25.5296 H       1  UNL1        0.1185
     59 H          19.1551  -16.6274   26.1704 H       1  UNL1        0.0280
     60 H          20.1930  -15.1920   26.4391 H       1  UNL1        0.0280
     61 H          18.4290  -15.8005   23.9920 H       1  UNL1        0.0269
     62 H          18.2665  -14.4411   25.2222 H       1  UNL1        0.0269
@<TRIPOS>BOND
     1     2     1   ar
     2     3     2    2
     3     4     2   ar
     4     5     4   ar
     5     6     1   ar
     6     6     5   ar
     7     7     6    2
     8     8     4    1
     9     9     8    1
    10    10     9    2
    11    11    10    1
    12    11     5    1
    13    12     1    1
    14    13    12    1
    15    14    13    1
    16    15    14    2
    17    16    14    2
    18    17    14    1
    19    18    17   ar
    20    19    18   ar
    21    20    19   ar
    22    21    20   ar
    23    22    21   ar
    24    22    17   ar
    25    23    11    1
    26    24    23   am
    27    25    23    2
    28    26    24    1
    29    27    26    1
    30    28    27    1
    31    29    28    1
    32    30    29    1
    33    31    30    1
    34    32    30    1
    35    33    32    1
    36    33    27    1
    37     8    34    1
    38     8    35    1
    39     9    36    1
    40    10    37    1
    41    11    38    1
    42    12    39    1
    43    12    40    1
    44    13    41    1
    45    13    42    1
    46    18    43    1
    47    19    44    1
    48    20    45    1
    49    21    46    1
    50    22    47    1
    51    24    48    1
    52    26    49    1
    53    26    50    1
    54    27    51    1
    55    28    52    1
    56    28    53    1
    57    29    54    1
    58    29    55    1
    59    30    56    1
    60    31    57    1
    61    31    58    1
    62    32    59    1
    63    32    60    1
    64    33    61    1
    65    33    62    1
