00P
 OpenBabel11072215023D

 62 65  0  0  0  0  0  0  0  0999 V2000
   15.3660  -13.4070   19.2980 N   0  0  0  0  0  0  0  0  0  0  0  0
   16.1930  -12.7200   18.4030 C   0  0  0  0  0  0  0  0  0  0  0  0
   15.9860  -11.6480   17.8420 O   0  0  0  0  0  0  0  0  0  0  0  0
   17.3510  -13.4930   18.2530 N   0  0  0  0  0  0  0  0  0  0  0  0
   17.2190  -14.6200   19.0570 N   0  0  0  0  0  0  0  0  0  0  0  0
   16.0000  -14.5690   19.7040 C   0  0  0  0  0  0  0  0  0  0  0  0
   15.6250  -15.4050   20.5060 O   0  0  0  0  0  0  0  0  0  0  0  0
   18.2290  -13.5050   17.0920 C   0  0  0  0  0  0  0  0  0  0  0  0
   19.4860  -14.2710   17.4330 C   0  0  0  0  0  0  0  0  0  0  0  0
   19.4750  -15.1740   18.4300 C   0  0  0  0  0  0  0  0  0  0  0  0
   18.2820  -15.5940   19.2420 C   0  0  1  0  0  0  0  0  0  0  0  0
   14.1060  -12.8940   19.8130 C   0  0  0  0  0  0  0  0  0  0  0  0
   14.2100  -11.9010   20.9590 C   0  0  0  0  0  0  0  0  0  0  0  0
   13.2910  -12.7880   22.1740 S   0  0  0  0  0  0  0  0  0  0  0  0
   12.2260  -13.5800   21.6290 O   0  0  0  0  0  0  0  0  0  0  0  0
   14.2860  -13.4710   23.0340 O   0  0  0  0  0  0  0  0  0  0  0  0
   12.5300  -11.6390   23.3130 C   0  0  0  0  0  0  0  0  0  0  0  0
   12.6120  -10.2700   23.0930 C   0  0  0  0  0  0  0  0  0  0  0  0
   11.9720   -9.4070   23.9810 C   0  0  0  0  0  0  0  0  0  0  0  0
   11.2620   -9.9070   25.0680 C   0  0  0  0  0  0  0  0  0  0  0  0
   11.1740  -11.2800   25.2860 C   0  0  0  0  0  0  0  0  0  0  0  0
   11.8040  -12.1440   24.3990 C   0  0  0  0  0  0  0  0  0  0  0  0
   18.7310  -15.5320   20.7420 C   0  0  0  0  0  0  0  0  0  0  0  0
   19.2850  -14.3110   21.1860 N   0  0  0  0  0  0  0  0  0  0  0  0
   18.7540  -16.5310   21.4440 O   0  0  0  0  0  0  0  0  0  0  0  0
   18.9440  -13.6690   22.4550 C   0  0  0  0  0  0  0  0  0  0  0  0
   19.7650  -14.1090   23.7210 C   0  0  2  0  0  0  0  0  0  0  0  0
   21.1740  -14.6530   23.3250 C   0  0  0  0  0  0  0  0  0  0  0  0
   21.9020  -15.4600   24.4570 C   0  0  0  0  0  0  0  0  0  0  0  0
   20.9440  -16.5780   24.9470 C   0  0  1  0  0  0  0  0  0  0  0  0
   21.6320  -17.5990   25.7490 N   0  0  0  0  0  0  0  0  0  0  0  0
   19.7910  -15.8770   25.6780 C   0  0  0  0  0  0  0  0  0  0  0  0
   18.9480  -15.0770   24.6380 C   0  0  0  0  0  0  0  0  0  0  0  0
   17.7180  -13.9919   16.2483 H   0  0  0  0  0  0  0  0  0  0  0  0
   18.4874  -12.4733   16.8111 H   0  0  0  0  0  0  0  0  0  0  0  0
   20.4108  -14.0901   16.8655 H   0  0  0  0  0  0  0  0  0  0  0  0
   20.4345  -15.6526   18.6754 H   0  0  0  0  0  0  0  0  0  0  0  0
   17.9292  -16.5939   18.9491 H   0  0  0  0  0  0  0  0  0  0  0  0
   13.5807  -12.3974   18.9839 H   0  0  0  0  0  0  0  0  0  0  0  0
   13.5760  -13.7662   20.2233 H   0  0  0  0  0  0  0  0  0  0  0  0
   15.2525  -11.7362   21.2690 H   0  0  0  0  0  0  0  0  0  0  0  0
   13.8488  -10.8853   20.7400 H   0  0  0  0  0  0  0  0  0  0  0  0
   13.1721   -9.8739   22.2332 H   0  0  0  0  0  0  0  0  0  0  0  0
   12.0288   -8.3202   23.8208 H   0  0  0  0  0  0  0  0  0  0  0  0
   10.7658   -9.2120   25.7614 H   0  0  0  0  0  0  0  0  0  0  0  0
   10.6144  -11.6740   26.1471 H   0  0  0  0  0  0  0  0  0  0  0  0
   11.7322  -13.2311   24.5506 H   0  0  0  0  0  0  0  0  0  0  0  0
   19.9723  -13.8434   20.5779 H   0  0  0  0  0  0  0  0  0  0  0  0
   19.0861  -12.5857   22.3275 H   0  0  0  0  0  0  0  0  0  0  0  0
   17.9096  -13.9799   22.6633 H   0  0  0  0  0  0  0  0  0  0  0  0
   19.9501  -13.2155   24.3353 H   0  0  0  0  0  0  0  0  0  0  0  0
   21.0546  -15.3143   22.4541 H   0  0  0  0  0  0  0  0  0  0  0  0
   21.8009  -13.7739   23.1150 H   0  0  0  0  0  0  0  0  0  0  0  0
   22.8252  -15.9078   24.0605 H   0  0  0  0  0  0  0  0  0  0  0  0
   22.1654  -14.7925   25.2907 H   0  0  0  0  0  0  0  0  0  0  0  0
   20.5436  -17.1558   24.1010 H   0  0  0  0  0  0  0  0  0  0  0  0
   21.4966  -17.3980   26.7501 H   0  0  0  0  0  0  0  0  0  0  0  0
   21.2434  -18.5273   25.5296 H   0  0  0  0  0  0  0  0  0  0  0  0
   19.1551  -16.6274   26.1704 H   0  0  0  0  0  0  0  0  0  0  0  0
   20.1930  -15.1920   26.4391 H   0  0  0  0  0  0  0  0  0  0  0  0
   18.4290  -15.8005   23.9920 H   0  0  0  0  0  0  0  0  0  0  0  0
   18.2665  -14.4411   25.2222 H   0  0  0  0  0  0  0  0  0  0  0  0
  2  1  1  0  0  0  0
  3  2  2  0  0  0  0
  4  2  1  0  0  0  0
  5  4  1  0  0  0  0
  6  1  1  0  0  0  0
  6  5  1  0  0  0  0
  7  6  2  0  0  0  0
  8  4  1  0  0  0  0
  8 34  1  0  0  0  0
  8 35  1  0  0  0  0
  9  8  1  0  0  0  0
  9 36  1  0  0  0  0
 10  9  2  0  0  0  0
 10 37  1  0  0  0  0
 11 10  1  0  0  0  0
 11  5  1  0  0  0  0
 11 38  1  6  0  0  0
 12  1  1  0  0  0  0
 12 39  1  0  0  0  0
 12 40  1  0  0  0  0
 13 12  1  0  0  0  0
 13 41  1  0  0  0  0
 13 42  1  0  0  0  0
 14 13  1  0  0  0  0
 15 14  2  0  0  0  0
 16 14  2  0  0  0  0
 17 14  1  0  0  0  0
 18 17  2  0  0  0  0
 18 43  1  0  0  0  0
 19 18  1  0  0  0  0
 19 44  1  0  0  0  0
 20 19  2  0  0  0  0
 20 45  1  0  0  0  0
 21 20  1  0  0  0  0
 21 46  1  0  0  0  0
 22 21  2  0  0  0  0
 22 17  1  0  0  0  0
 22 47  1  0  0  0  0
 23 11  1  0  0  0  0
 24 23  1  0  0  0  0
 24 48  1  0  0  0  0
 25 23  2  0  0  0  0
 26 24  1  0  0  0  0
 26 49  1  0  0  0  0
 26 50  1  0  0  0  0
 27 26  1  0  0  0  0
 27 51  1  1  0  0  0
 28 27  1  0  0  0  0
 28 52  1  0  0  0  0
 28 53  1  0  0  0  0
 29 28  1  0  0  0  0
 29 54  1  0  0  0  0
 29 55  1  0  0  0  0
 30 29  1  0  0  0  0
 30 56  1  6  0  0  0
 31 30  1  0  0  0  0
 31 57  1  0  0  0  0
 31 58  1  0  0  0  0
 32 30  1  0  0  0  0
 32 59  1  0  0  0  0
 32 60  1  0  0  0  0
 33 32  1  0  0  0  0
 33 27  1  0  0  0  0
 33 61  1  0  0  0  0
 33 62  1  0  0  0  0
M  END
$$$$
