@<TRIPOS>MOLECULE
208
 54 57 0 0 0
SMALL
GASTEIGER

@<TRIPOS>ATOM
      1 N           6.8410   -1.9370   37.5960 N.ar    1  UNL1       -0.3407
      2 C           7.6970   -2.9000   37.0020 C.ar    1  UNL1        0.0494
      3 C           6.0280   -1.4150   36.5490 C.ar    1  UNL1        0.0061
      4 C           7.4170   -2.9300   35.6430 C.ar    1  UNL1        0.0001
      5 C           6.3600   -2.0020   35.3710 C.ar    1  UNL1       -0.0364
      6 C           8.6810   -3.6980   37.5980 C.ar    1  UNL1       -0.0373
      7 C           8.1660   -3.7750   34.8070 C.ar    1  UNL1       -0.0493
      8 C           9.1620   -4.5580   35.3680 C.ar    1  UNL1       -0.0437
      9 C           9.4110   -4.5260   36.7600 C.ar    1  UNL1       -0.0565
     10 C           6.8130   -1.5360   39.0090 C.3     1  UNL1        0.0687
     11 C           5.5600   -2.0300   39.6620 C.ar    1  UNL1        0.1023
     12 N           5.4870   -3.2920   40.2880 N.ar    1  UNL1       -0.2119
     13 C           4.2130   -3.4440   40.7810 C.ar    1  UNL1        0.2291
     14 O           3.5100   -2.3320   40.4870 O.2     1  UNL1       -0.4401
     15 C           4.3460   -1.4730   39.8020 C.ar    1  UNL1        0.1275
     16 C           3.8310   -0.1420   39.3480 C.3     1  UNL1       -0.0044
     17 C           3.7310   -4.6110   41.4930 C.ar    1  UNL1        0.0552
     18 C           4.4630   -5.2150   42.5370 C.ar    1  UNL1        0.0532
     19 CL          6.0210   -4.5920   43.0340 Cl      1  UNL1       -0.0828
     20 C           3.9500   -6.3290   43.2050 C.ar    1  UNL1       -0.0426
     21 C           2.7150   -6.8500   42.8400 C.ar    1  UNL1       -0.0603
     22 C           1.9840   -6.2630   41.8050 C.ar    1  UNL1       -0.0610
     23 C           2.4870   -5.1560   41.1380 C.ar    1  UNL1       -0.0481
     24 C           9.9910   -5.4310   34.4750 C.3     1  UNL1        0.0092
     25 C          10.0090   -6.8840   34.9590 C.3     1  UNL1        0.1587
     26 C           9.7980   -7.8030   33.7940 C.2     1  UNL1        0.3342
     27 O          10.1480   -7.4180   32.6380 O.2     1  UNL1       -0.2481
     28 O           9.2240   -8.9130   34.0070 O.3     1  UNL1       -0.4788
     29 O          11.2400   -7.1760   35.6170 O.3     1  UNL1       -0.3653
     30 C          12.3080   -6.3740   35.1260 C.3     1  UNL1        0.0459
     31 C          13.3000   -7.2360   34.3430 C.3     1  UNL1       -0.0415
     32 H           5.2476   -0.6503   36.6763 H       1  UNL1        0.0809
     33 H           5.9028   -1.8024   34.3906 H       1  UNL1        0.0639
     34 H           8.8662   -3.6691   38.6819 H       1  UNL1        0.0638
     35 H           7.9653   -3.8143   33.7262 H       1  UNL1        0.0627
     36 H          10.1966   -5.1686   37.1842 H       1  UNL1        0.0621
     37 H           7.6849   -1.9639   39.5254 H       1  UNL1        0.0558
     38 H           6.8412   -0.4381   39.0711 H       1  UNL1        0.0558
     39 H           3.5915    0.4771   40.2251 H       1  UNL1        0.0308
     40 H           4.5993    0.3614   38.7427 H       1  UNL1        0.0308
     41 H           2.9240   -0.2868   38.7427 H       1  UNL1        0.0308
     42 H           4.5239   -6.7939   44.0202 H       1  UNL1        0.0632
     43 H           2.3119   -7.7271   43.3675 H       1  UNL1        0.0618
     44 H           1.0072   -6.6795   41.5182 H       1  UNL1        0.0618
     45 H           1.9055   -4.7006   40.3228 H       1  UNL1        0.0626
     46 H           9.5729   -5.3994   33.4581 H       1  UNL1        0.0344
     47 H          11.0238   -5.0526   34.4893 H       1  UNL1        0.0344
     48 H           9.1946   -7.0338   35.6831 H       1  UNL1        0.0716
     49 H           9.0699   -9.5422   33.2584 H       1  UNL1        0.2951
     50 H          11.9024   -5.5947   34.4640 H       1  UNL1        0.0557
     51 H          12.8290   -5.9106   35.9768 H       1  UNL1        0.0557
     52 H          13.9385   -7.7908   35.0463 H       1  UNL1        0.0252
     53 H          12.7483   -7.9465   33.7099 H       1  UNL1        0.0252
     54 H          13.9265   -6.5906   33.7099 H       1  UNL1        0.0252
@<TRIPOS>BOND
     1     2     1   ar
     2     3     1   ar
     3     4     2   ar
     4     5     4   ar
     5     5     3   ar
     6     6     2   ar
     7     7     4   ar
     8     8     7   ar
     9     9     8   ar
    10     9     6   ar
    11    10     1    1
    12    11    10    1
    13    12    11   ar
    14    13    12   ar
    15    14    13   ar
    16    15    14   ar
    17    15    11   ar
    18    16    15    1
    19    17    13    1
    20    18    17   ar
    21    19    18    1
    22    20    18   ar
    23    21    20   ar
    24    22    21   ar
    25    23    22   ar
    26    23    17   ar
    27    24     8    1
    28    25    24    1
    29    26    25    1
    30    27    26    2
    31    28    26    1
    32    29    25    1
    33    30    29    1
    34    31    30    1
    35     3    32    1
    36     5    33    1
    37     6    34    1
    38     7    35    1
    39     9    36    1
    40    10    37    1
    41    10    38    1
    42    16    39    1
    43    16    40    1
    44    16    41    1
    45    20    42    1
    46    21    43    1
    47    22    44    1
    48    23    45    1
    49    24    46    1
    50    24    47    1
    51    25    48    1
    52    28    49    1
    53    30    50    1
    54    30    51    1
    55    31    52    1
    56    31    53    1
    57    31    54    1
