208
 OpenBabel10252216173D

 54 57  0  0  0  0  0  0  0  0999 V2000
    6.8410   -1.9370   37.5960 N   0  0  0  0  0  0  0  0  0  0  0  0
    7.6970   -2.9000   37.0020 C   0  0  0  0  0  0  0  0  0  0  0  0
    6.0280   -1.4150   36.5490 C   0  0  0  0  0  0  0  0  0  0  0  0
    7.4170   -2.9300   35.6430 C   0  0  0  0  0  0  0  0  0  0  0  0
    6.3600   -2.0020   35.3710 C   0  0  0  0  0  0  0  0  0  0  0  0
    8.6810   -3.6980   37.5980 C   0  0  0  0  0  0  0  0  0  0  0  0
    8.1660   -3.7750   34.8070 C   0  0  0  0  0  0  0  0  0  0  0  0
    9.1620   -4.5580   35.3680 C   0  0  0  0  0  0  0  0  0  0  0  0
    9.4110   -4.5260   36.7600 C   0  0  0  0  0  0  0  0  0  0  0  0
    6.8130   -1.5360   39.0090 C   0  0  0  0  0  0  0  0  0  0  0  0
    5.5600   -2.0300   39.6620 C   0  0  0  0  0  0  0  0  0  0  0  0
    5.4870   -3.2920   40.2880 N   0  0  0  0  0  0  0  0  0  0  0  0
    4.2130   -3.4440   40.7810 C   0  0  0  0  0  0  0  0  0  0  0  0
    3.5100   -2.3320   40.4870 O   0  0  0  0  0  0  0  0  0  0  0  0
    4.3460   -1.4730   39.8020 C   0  0  0  0  0  0  0  0  0  0  0  0
    3.8310   -0.1420   39.3480 C   0  0  0  0  0  0  0  0  0  0  0  0
    3.7310   -4.6110   41.4930 C   0  0  0  0  0  0  0  0  0  0  0  0
    4.4630   -5.2150   42.5370 C   0  0  0  0  0  0  0  0  0  0  0  0
    6.0210   -4.5920   43.0340 Cl  0  0  0  0  0  0  0  0  0  0  0  0
    3.9500   -6.3290   43.2050 C   0  0  0  0  0  0  0  0  0  0  0  0
    2.7150   -6.8500   42.8400 C   0  0  0  0  0  0  0  0  0  0  0  0
    1.9840   -6.2630   41.8050 C   0  0  0  0  0  0  0  0  0  0  0  0
    2.4870   -5.1560   41.1380 C   0  0  0  0  0  0  0  0  0  0  0  0
    9.9910   -5.4310   34.4750 C   0  0  0  0  0  0  0  0  0  0  0  0
   10.0090   -6.8840   34.9590 C   0  0  1  0  0  0  0  0  0  0  0  0
    9.7980   -7.8030   33.7940 C   0  0  0  0  0  0  0  0  0  0  0  0
   10.1480   -7.4180   32.6380 O   0  0  0  0  0  0  0  0  0  0  0  0
    9.2240   -8.9130   34.0070 O   0  0  0  0  0  0  0  0  0  0  0  0
   11.2400   -7.1760   35.6170 O   0  0  0  0  0  0  0  0  0  0  0  0
   12.3080   -6.3740   35.1260 C   0  0  0  0  0  0  0  0  0  0  0  0
   13.3000   -7.2360   34.3430 C   0  0  0  0  0  0  0  0  0  0  0  0
    5.2476   -0.6503   36.6763 H   0  0  0  0  0  0  0  0  0  0  0  0
    5.9028   -1.8024   34.3906 H   0  0  0  0  0  0  0  0  0  0  0  0
    8.8662   -3.6691   38.6819 H   0  0  0  0  0  0  0  0  0  0  0  0
    7.9653   -3.8143   33.7262 H   0  0  0  0  0  0  0  0  0  0  0  0
   10.1966   -5.1686   37.1842 H   0  0  0  0  0  0  0  0  0  0  0  0
    7.6849   -1.9639   39.5254 H   0  0  0  0  0  0  0  0  0  0  0  0
    6.8412   -0.4381   39.0711 H   0  0  0  0  0  0  0  0  0  0  0  0
    3.5915    0.4771   40.2251 H   0  0  0  0  0  0  0  0  0  0  0  0
    4.5993    0.3614   38.7427 H   0  0  0  0  0  0  0  0  0  0  0  0
    2.9240   -0.2868   38.7427 H   0  0  0  0  0  0  0  0  0  0  0  0
    4.5239   -6.7939   44.0202 H   0  0  0  0  0  0  0  0  0  0  0  0
    2.3119   -7.7271   43.3675 H   0  0  0  0  0  0  0  0  0  0  0  0
    1.0072   -6.6795   41.5182 H   0  0  0  0  0  0  0  0  0  0  0  0
    1.9055   -4.7006   40.3228 H   0  0  0  0  0  0  0  0  0  0  0  0
    9.5729   -5.3994   33.4581 H   0  0  0  0  0  0  0  0  0  0  0  0
   11.0238   -5.0526   34.4893 H   0  0  0  0  0  0  0  0  0  0  0  0
    9.1946   -7.0338   35.6831 H   0  0  0  0  0  0  0  0  0  0  0  0
    9.0699   -9.5422   33.2584 H   0  0  0  0  0  0  0  0  0  0  0  0
   11.9024   -5.5947   34.4640 H   0  0  0  0  0  0  0  0  0  0  0  0
   12.8290   -5.9106   35.9768 H   0  0  0  0  0  0  0  0  0  0  0  0
   13.9385   -7.7908   35.0463 H   0  0  0  0  0  0  0  0  0  0  0  0
   12.7483   -7.9465   33.7099 H   0  0  0  0  0  0  0  0  0  0  0  0
   13.9265   -6.5906   33.7099 H   0  0  0  0  0  0  0  0  0  0  0  0
  2  1  1  0  0  0  0
  3  1  1  0  0  0  0
  3 32  1  0  0  0  0
  4  2  2  0  0  0  0
  5  4  1  0  0  0  0
  5  3  2  0  0  0  0
  5 33  1  0  0  0  0
  6  2  1  0  0  0  0
  6 34  1  0  0  0  0
  7  4  1  0  0  0  0
  7 35  1  0  0  0  0
  8  7  2  0  0  0  0
  9  8  1  0  0  0  0
  9  6  2  0  0  0  0
  9 36  1  0  0  0  0
 10  1  1  0  0  0  0
 10 37  1  0  0  0  0
 10 38  1  0  0  0  0
 11 10  1  0  0  0  0
 12 11  1  0  0  0  0
 13 12  2  0  0  0  0
 14 13  1  0  0  0  0
 15 14  1  0  0  0  0
 15 11  2  0  0  0  0
 16 15  1  0  0  0  0
 16 39  1  0  0  0  0
 16 40  1  0  0  0  0
 16 41  1  0  0  0  0
 17 13  1  0  0  0  0
 18 17  2  0  0  0  0
 19 18  1  0  0  0  0
 20 18  1  0  0  0  0
 20 42  1  0  0  0  0
 21 20  2  0  0  0  0
 21 43  1  0  0  0  0
 22 21  1  0  0  0  0
 22 44  1  0  0  0  0
 23 22  2  0  0  0  0
 23 17  1  0  0  0  0
 23 45  1  0  0  0  0
 24  8  1  0  0  0  0
 24 46  1  0  0  0  0
 24 47  1  0  0  0  0
 25 24  1  0  0  0  0
 25 48  1  1  0  0  0
 26 25  1  0  0  0  0
 27 26  2  0  0  0  0
 28 26  1  0  0  0  0
 28 49  1  0  0  0  0
 29 25  1  0  0  0  0
 30 29  1  0  0  0  0
 30 50  1  0  0  0  0
 30 51  1  0  0  0  0
 31 30  1  0  0  0  0
 31 52  1  0  0  0  0
 31 53  1  0  0  0  0
 31 54  1  0  0  0  0
M  END
$$$$
