PY3
 OpenBabel05132215313D

 88 91  0  0  0  0  0  0  0  0999 V2000
   37.3220    8.0220    8.3410 N   0  0  0  0  0  0  0  0  0  0  0  0
   38.0540    7.3130    9.3170 C   0  0  0  0  0  0  0  0  0  0  0  0
   39.5150    7.1280    9.1440 C   0  0  0  0  0  0  0  0  0  0  0  0
   40.0770    7.6330    8.0700 N   0  0  0  0  0  0  0  0  0  0  0  0
   39.3600    8.3160    7.0840 C   0  0  0  0  0  0  0  0  0  0  0  0
   38.0240    8.5020    7.2020 C   0  0  0  0  0  0  0  0  0  0  0  0
   37.5440    6.8520   10.3460 O   0  0  0  0  0  0  0  0  0  0  0  0
   35.8940    8.2530    8.6470 C   0  0  0  0  0  0  0  0  0  0  0  0
   35.0630    7.0290    8.9390 C   0  0  0  0  0  0  0  0  0  0  0  0
   34.8080    6.2190    7.9070 N   0  0  0  0  0  0  0  0  0  0  0  0
   34.6350    6.8070   10.0530 O   0  0  0  0  0  0  0  0  0  0  0  0
   33.7270    5.1770    7.9520 C   0  0  0  0  0  0  0  0  0  0  0  0
   32.6200    5.6170    7.0400 C   0  0  0  0  0  0  0  0  0  0  0  0
   31.4630    6.3280    7.3930 C   0  0  0  0  0  0  0  0  0  0  0  0
   30.4880    6.6970    6.4170 C   0  0  0  0  0  0  0  0  0  0  0  0
   30.6540    6.3460    5.0570 C   0  0  0  0  0  0  0  0  0  0  0  0
   31.8130    5.6190    4.6760 C   0  0  0  0  0  0  0  0  0  0  0  0
   32.7850    5.2630    5.6600 C   0  0  0  0  0  0  0  0  0  0  0  0
   31.1540    6.7350    8.7740 C   0  0  0  0  0  0  0  0  0  0  0  0
   30.5630    5.9010    9.6240 N   0  0  0  0  0  0  0  0  0  0  0  0
   31.5050    7.8650    9.0390 O   0  0  0  0  0  0  0  0  0  0  0  0
   30.2690    6.1380   10.9780 C   0  0  0  0  0  0  0  0  0  0  0  0
   29.4520    7.1950   11.4430 C   0  0  0  0  0  0  0  0  0  0  0  0
   29.2260    7.3570   12.8180 C   0  0  0  0  0  0  0  0  0  0  0  0
   29.7890    6.5000   13.6950 N   0  0  0  0  0  0  0  0  0  0  0  0
   30.5760    5.4700   13.2990 C   0  0  0  0  0  0  0  0  0  0  0  0
   30.8400    5.2630   11.9340 C   0  0  0  0  0  0  0  0  0  0  0  0
   29.6590    6.7250    4.0420 C   0  0  0  0  0  0  0  0  0  0  0  0
   28.7980    7.7520    4.2660 N   0  0  0  0  0  0  0  0  0  0  0  0
   29.5830    6.0850    2.9080 N   0  0  0  0  0  0  0  0  0  0  0  0
   37.2940    9.1540    6.0950 C   0  0  0  0  0  0  0  0  0  0  0  0
   37.0220   10.5560    6.1330 C   0  0  0  0  0  0  0  0  0  0  0  0
   36.2880   11.1620    5.0740 C   0  0  0  0  0  0  0  0  0  0  0  0
   35.8280   10.3670    3.9910 C   0  0  0  0  0  0  0  0  0  0  0  0
   36.0010   12.5280    5.0930 N   0  0  0  0  0  0  0  0  0  0  0  0
   36.0790    8.9900    3.9320 C   0  0  0  0  0  0  0  0  0  0  0  0
   36.8160    8.3780    4.9900 C   0  0  0  0  0  0  0  0  0  0  0  0
   35.5540    8.1990    2.8040 C   0  0  0  0  0  0  0  0  0  0  0  0
   34.2140    8.1770    2.5200 N   0  0  0  0  0  0  0  0  0  0  0  0
   36.3420    7.5620    2.1350 O   0  0  0  0  0  0  0  0  0  0  0  0
   33.5350    7.4350    1.4170 C   0  0  2  0  0  0  0  0  0  0  0  0
   32.0910    7.9700    1.2940 C   0  0  0  0  0  0  0  0  0  0  0  0
   33.5670    5.9100    1.6750 C   0  0  0  0  0  0  0  0  0  0  0  0
   32.4020    5.0880    1.0460 C   0  0  0  0  0  0  0  0  0  0  0  0
   40.2620    6.4620   10.0860 N   0  0  0  0  0  0  0  0  0  0  0  0
   40.9430    5.1770    9.8650 C   0  0  0  0  0  0  0  0  0  0  0  0
   41.9750    4.9680   11.0150 C   0  0  0  0  0  0  0  0  0  0  0  0
   39.8770    4.0570    9.8210 C   0  0  0  0  0  0  0  0  0  0  0  0
   39.8547    8.6830    6.2560 H   0  0  0  0  0  0  0  0  0  0  0  0
   35.4573    8.7496    7.8058 H   0  0  0  0  0  0  0  0  0  0  0  0
   35.8866    8.8235    9.5522 H   0  0  0  0  0  0  0  0  0  0  0  0
   35.3477    6.3084    7.0885 H   0  0  0  0  0  0  0  0  0  0  0  0
   33.3572    5.0804    8.9514 H   0  0  0  0  0  0  0  0  0  0  0  0
   34.1116    4.2289    7.6388 H   0  0  0  0  0  0  0  0  0  0  0  0
   29.6514    7.2267    6.7078 H   0  0  0  0  0  0  0  0  0  0  0  0
   31.9526    5.3485    3.6899 H   0  0  0  0  0  0  0  0  0  0  0  0
   33.6257    4.7388    5.3713 H   0  0  0  0  0  0  0  0  0  0  0  0
   30.3029    5.0215    9.2661 H   0  0  0  0  0  0  0  0  0  0  0  0
   29.0215    7.8480   10.7697 H   0  0  0  0  0  0  0  0  0  0  0  0
   28.6312    8.1290   13.1576 H   0  0  0  0  0  0  0  0  0  0  0  0
   30.9833    4.8347   14.0030 H   0  0  0  0  0  0  0  0  0  0  0  0
   31.4432    4.4821   11.6318 H   0  0  0  0  0  0  0  0  0  0  0  0
   28.8360    8.2501    5.1143 H   0  0  0  0  0  0  0  0  0  0  0  0
   30.1961    5.3373    2.7227 H   0  0  0  0  0  0  0  0  0  0  0  0
   28.9125    6.3496    2.2374 H   0  0  0  0  0  0  0  0  0  0  0  0
   37.3562   11.1273    6.9248 H   0  0  0  0  0  0  0  0  0  0  0  0
   35.2957   10.8147    3.2286 H   0  0  0  0  0  0  0  0  0  0  0  0
   36.3159   13.0868    5.8399 H   0  0  0  0  0  0  0  0  0  0  0  0
   35.4837   12.9326    4.3595 H   0  0  0  0  0  0  0  0  0  0  0  0
   37.0068    7.3643    4.9585 H   0  0  0  0  0  0  0  0  0  0  0  0
   33.6336    8.7105    3.1097 H   0  0  0  0  0  0  0  0  0  0  0  0
   34.0490    7.5944    0.4922 H   0  0  0  0  0  0  0  0  0  0  0  0
   31.5726    7.8128    2.2167 H   0  0  0  0  0  0  0  0  0  0  0  0
   31.5842    7.4512    0.5073 H   0  0  0  0  0  0  0  0  0  0  0  0
   32.1160    9.0166    1.0727 H   0  0  0  0  0  0  0  0  0  0  0  0
   33.5424    5.7561    2.7336 H   0  0  0  0  0  0  0  0  0  0  0  0
   34.4592    5.5554    1.2026 H   0  0  0  0  0  0  0  0  0  0  0  0
   31.4734    5.3966    1.4790 H   0  0  0  0  0  0  0  0  0  0  0  0
   32.5563    4.0466    1.2375 H   0  0  0  0  0  0  0  0  0  0  0  0
   32.3764    5.2564   -0.0104 H   0  0  0  0  0  0  0  0  0  0  0  0
   40.3477    6.8759   10.9752 H   0  0  0  0  0  0  0  0  0  0  0  0
   41.4731    5.1603    8.9357 H   0  0  0  0  0  0  0  0  0  0  0  0
   41.4671    4.9809   11.9567 H   0  0  0  0  0  0  0  0  0  0  0  0
   42.7006    5.7540   10.9903 H   0  0  0  0  0  0  0  0  0  0  0  0
   42.4655    4.0256   10.8872 H   0  0  0  0  0  0  0  0  0  0  0  0
   39.3293    4.0496   10.7402 H   0  0  0  0  0  0  0  0  0  0  0  0
   40.3587    3.1113    9.6852 H   0  0  0  0  0  0  0  0  0  0  0  0
   39.2056    4.2354    9.0072 H   0  0  0  0  0  0  0  0  0  0  0  0
  2  1  1  0  0  0  0
  3  2  1  0  0  0  0
  4  3  2  0  0  0  0
  5  4  1  0  0  0  0
  5 49  1  0  0  0  0
  6  1  1  0  0  0  0
  6  5  2  0  0  0  0
  7  2  2  0  0  0  0
  8  1  1  0  0  0  0
  8 50  1  0  0  0  0
  8 51  1  0  0  0  0
  9  8  1  0  0  0  0
 10  9  1  0  0  0  0
 10 52  1  0  0  0  0
 11  9  2  0  0  0  0
 12 10  1  0  0  0  0
 12 53  1  0  0  0  0
 12 54  1  0  0  0  0
 13 12  1  0  0  0  0
 14 13  1  0  0  0  0
 15 14  2  0  0  0  0
 15 55  1  0  0  0  0
 16 15  1  0  0  0  0
 17 16  2  0  0  0  0
 17 56  1  0  0  0  0
 18 17  1  0  0  0  0
 18 13  2  0  0  0  0
 18 57  1  0  0  0  0
 19 14  1  0  0  0  0
 20 19  1  0  0  0  0
 20 58  1  0  0  0  0
 21 19  2  0  0  0  0
 22 20  1  0  0  0  0
 23 22  2  0  0  0  0
 23 59  1  0  0  0  0
 24 23  1  0  0  0  0
 24 60  1  0  0  0  0
 25 24  2  0  0  0  0
 26 25  1  0  0  0  0
 26 61  1  0  0  0  0
 27 26  2  0  0  0  0
 27 22  1  0  0  0  0
 27 62  1  0  0  0  0
 28 16  1  0  0  0  0
 29 28  2  0  0  0  0
 29 63  1  0  0  0  0
 30 28  1  0  0  0  0
 30 64  1  0  0  0  0
 30 65  1  0  0  0  0
 31  6  1  0  0  0  0
 32 31  2  0  0  0  0
 32 66  1  0  0  0  0
 33 32  1  0  0  0  0
 34 33  2  0  0  0  0
 34 67  1  0  0  0  0
 35 33  1  0  0  0  0
 35 68  1  0  0  0  0
 35 69  1  0  0  0  0
 36 34  1  0  0  0  0
 37 36  2  0  0  0  0
 37 31  1  0  0  0  0
 37 70  1  0  0  0  0
 38 36  1  0  0  0  0
 39 38  1  0  0  0  0
 39 71  1  0  0  0  0
 40 38  2  0  0  0  0
 41 39  1  0  0  0  0
 41 72  1  6  0  0  0
 42 41  1  0  0  0  0
 42 73  1  0  0  0  0
 42 74  1  0  0  0  0
 42 75  1  0  0  0  0
 43 41  1  0  0  0  0
 43 76  1  0  0  0  0
 43 77  1  0  0  0  0
 44 43  1  0  0  0  0
 44 78  1  0  0  0  0
 44 79  1  0  0  0  0
 44 80  1  0  0  0  0
 45  3  1  0  0  0  0
 45 81  1  0  0  0  0
 46 45  1  0  0  0  0
 46 82  1  0  0  0  0
 47 46  1  0  0  0  0
 47 83  1  0  0  0  0
 47 84  1  0  0  0  0
 47 85  1  0  0  0  0
 48 46  1  0  0  0  0
 48 86  1  0  0  0  0
 48 87  1  0  0  0  0
 48 88  1  0  0  0  0
M  END
$$$$
