@<TRIPOS>MOLECULE
PY3
 88 91 0 0 0
SMALL
GASTEIGER

@<TRIPOS>ATOM
      1 N          37.3220    8.0220    8.3410 N.ar    1  UNL1       -0.2950
      2 C          38.0540    7.3130    9.3170 C.ar    1  UNL1        0.2921
      3 C          39.5150    7.1280    9.1440 C.ar    1  UNL1        0.1846
      4 N          40.0770    7.6330    8.0700 N.ar    1  UNL1       -0.2333
      5 C          39.3600    8.3160    7.0840 C.ar    1  UNL1        0.0540
      6 C          38.0240    8.5020    7.2020 C.ar    1  UNL1        0.0708
      7 O          37.5440    6.8520   10.3460 O.2     1  UNL1       -0.2639
      8 C          35.8940    8.2530    8.6470 C.3     1  UNL1        0.1030
      9 C          35.0630    7.0290    8.9390 C.2     1  UNL1        0.2332
     10 N          34.8080    6.2190    7.9070 N.am    1  UNL1       -0.3097
     11 O          34.6350    6.8070   10.0530 O.2     1  UNL1       -0.2738
     12 C          33.7270    5.1770    7.9520 C.3     1  UNL1        0.0376
     13 C          32.6200    5.6170    7.0400 C.ar    1  UNL1       -0.0182
     14 C          31.4630    6.3280    7.3930 C.ar    1  UNL1        0.0425
     15 C          30.4880    6.6970    6.4170 C.ar    1  UNL1       -0.0345
     16 C          30.6540    6.3460    5.0570 C.ar    1  UNL1        0.0654
     17 C          31.8130    5.6190    4.6760 C.ar    1  UNL1       -0.0466
     18 C          32.7850    5.2630    5.6600 C.ar    1  UNL1       -0.0555
     19 C          31.1540    6.7350    8.7740 C.2     1  UNL1        0.2486
     20 N          30.5630    5.9010    9.6240 N.am    1  UNL1       -0.2814
     21 O          31.5050    7.8650    9.0390 O.2     1  UNL1       -0.2698
     22 C          30.2690    6.1380   10.9780 C.ar    1  UNL1        0.0365
     23 C          29.4520    7.1950   11.4430 C.ar    1  UNL1       -0.0223
     24 C          29.2260    7.3570   12.8180 C.ar    1  UNL1        0.0293
     25 N          29.7890    6.5000   13.6950 N.ar    1  UNL1       -0.2631
     26 C          30.5760    5.4700   13.2990 C.ar    1  UNL1        0.0293
     27 C          30.8400    5.2630   11.9340 C.ar    1  UNL1       -0.0223
     28 C          29.6590    6.7250    4.0420 C.2     1  UNL1        0.3081
     29 N          28.7980    7.7520    4.2660 N.2     1  UNL1       -0.0994
     30 N          29.5830    6.0850    2.9080 N.pl3   1  UNL1       -0.2466
     31 C          37.2940    9.1540    6.0950 C.ar    1  UNL1        0.0025
     32 C          37.0220   10.5560    6.1330 C.ar    1  UNL1       -0.0318
     33 C          36.2880   11.1620    5.0740 C.ar    1  UNL1        0.0259
     34 C          35.8280   10.3670    3.9910 C.ar    1  UNL1       -0.0289
     35 N          36.0010   12.5280    5.0930 N.pl3   1  UNL1       -0.3579
     36 C          36.0790    8.9900    3.9320 C.ar    1  UNL1        0.0391
     37 C          36.8160    8.3780    4.9900 C.ar    1  UNL1       -0.0403
     38 C          35.5540    8.1990    2.8040 C.2     1  UNL1        0.2444
     39 N          34.2140    8.1770    2.5200 N.am    1  UNL1       -0.3088
     40 O          36.3420    7.5620    2.1350 O.2     1  UNL1       -0.2702
     41 C          33.5350    7.4350    1.4170 C.3     1  UNL1        0.0204
     42 C          32.0910    7.9700    1.2940 C.3     1  UNL1       -0.0466
     43 C          33.5670    5.9100    1.6750 C.3     1  UNL1       -0.0376
     44 C          32.4020    5.0880    1.0460 C.3     1  UNL1       -0.0636
     45 N          40.2620    6.4620   10.0860 N.pl3   1  UNL1       -0.3224
     46 C          40.9430    5.1770    9.8650 C.3     1  UNL1        0.0165
     47 C          41.9750    4.9680   11.0150 C.3     1  UNL1       -0.0469
     48 C          39.8770    4.0570    9.8210 C.3     1  UNL1       -0.0469
     49 H          39.8547    8.6830    6.2560 H       1  UNL1        0.0851
     50 H          35.4573    8.7496    7.8058 H       1  UNL1        0.0589
     51 H          35.8866    8.8235    9.5522 H       1  UNL1        0.0589
     52 H          35.3477    6.3084    7.0885 H       1  UNL1        0.1491
     53 H          33.3572    5.0804    8.9514 H       1  UNL1        0.0512
     54 H          34.1116    4.2289    7.6388 H       1  UNL1        0.0512
     55 H          29.6514    7.2267    6.7078 H       1  UNL1        0.0634
     56 H          31.9526    5.3485    3.6899 H       1  UNL1        0.0626
     57 H          33.6257    4.7388    5.3713 H       1  UNL1        0.0621
     58 H          30.3029    5.0215    9.2661 H       1  UNL1        0.1551
     59 H          29.0215    7.8480   10.7697 H       1  UNL1        0.0651
     60 H          28.6312    8.1290   13.1576 H       1  UNL1        0.0830
     61 H          30.9833    4.8347   14.0030 H       1  UNL1        0.0830
     62 H          31.4432    4.4821   11.6318 H       1  UNL1        0.0651
     63 H          28.8360    8.2501    5.1143 H       1  UNL1        0.3633
     64 H          30.1961    5.3373    2.7227 H       1  UNL1        0.2884
     65 H          28.9125    6.3496    2.2374 H       1  UNL1        0.2884
     66 H          37.3562   11.1273    6.9248 H       1  UNL1        0.0642
     67 H          35.2957   10.8147    3.2286 H       1  UNL1        0.0643
     68 H          36.3159   13.0868    5.8399 H       1  UNL1        0.1423
     69 H          35.4837   12.9326    4.3595 H       1  UNL1        0.1423
     70 H          37.0068    7.3643    4.9585 H       1  UNL1        0.0632
     71 H          33.6336    8.7105    3.1097 H       1  UNL1        0.1493
     72 H          34.0490    7.5944    0.4922 H       1  UNL1        0.0495
     73 H          31.5726    7.8128    2.2167 H       1  UNL1        0.0247
     74 H          31.5842    7.4512    0.5073 H       1  UNL1        0.0247
     75 H          32.1160    9.0166    1.0727 H       1  UNL1        0.0247
     76 H          33.5424    5.7561    2.7336 H       1  UNL1        0.0280
     77 H          34.4592    5.5554    1.2026 H       1  UNL1        0.0280
     78 H          31.4734    5.3966    1.4790 H       1  UNL1        0.0230
     79 H          32.5563    4.0466    1.2375 H       1  UNL1        0.0230
     80 H          32.3764    5.2564   -0.0104 H       1  UNL1        0.0230
     81 H          40.3477    6.8759   10.9752 H       1  UNL1        0.1479
     82 H          41.4731    5.1603    8.9357 H       1  UNL1        0.0492
     83 H          41.4671    4.9809   11.9567 H       1  UNL1        0.0247
     84 H          42.7006    5.7540   10.9903 H       1  UNL1        0.0247
     85 H          42.4655    4.0256   10.8872 H       1  UNL1        0.0247
     86 H          39.3293    4.0496   10.7402 H       1  UNL1        0.0247
     87 H          40.3587    3.1113    9.6852 H       1  UNL1        0.0247
     88 H          39.2056    4.2354    9.0072 H       1  UNL1        0.0247
@<TRIPOS>BOND
     1     2     1   ar
     2     3     2   ar
     3     4     3   ar
     4     5     4   ar
     5     6     1   ar
     6     6     5   ar
     7     7     2    2
     8     8     1    1
     9     9     8    1
    10    10     9   am
    11    11     9    2
    12    12    10    1
    13    13    12    1
    14    14    13   ar
    15    15    14   ar
    16    16    15   ar
    17    17    16   ar
    18    18    17   ar
    19    18    13   ar
    20    19    14    1
    21    20    19   am
    22    21    19    2
    23    22    20    1
    24    23    22   ar
    25    24    23   ar
    26    25    24   ar
    27    26    25   ar
    28    27    26   ar
    29    27    22   ar
    30    28    16    1
    31    29    28    2
    32    30    28    1
    33    31     6    1
    34    32    31   ar
    35    33    32   ar
    36    34    33   ar
    37    35    33    1
    38    36    34   ar
    39    37    36   ar
    40    37    31   ar
    41    38    36    1
    42    39    38   am
    43    40    38    2
    44    41    39    1
    45    42    41    1
    46    43    41    1
    47    44    43    1
    48    45     3    1
    49    46    45    1
    50    47    46    1
    51    48    46    1
    52     5    49    1
    53     8    50    1
    54     8    51    1
    55    10    52    1
    56    12    53    1
    57    12    54    1
    58    15    55    1
    59    17    56    1
    60    18    57    1
    61    20    58    1
    62    23    59    1
    63    24    60    1
    64    26    61    1
    65    27    62    1
    66    29    63    1
    67    30    64    1
    68    30    65    1
    69    32    66    1
    70    34    67    1
    71    35    68    1
    72    35    69    1
    73    37    70    1
    74    39    71    1
    75    41    72    1
    76    42    73    1
    77    42    74    1
    78    42    75    1
    79    43    76    1
    80    43    77    1
    81    44    78    1
    82    44    79    1
    83    44    80    1
    84    45    81    1
    85    46    82    1
    86    47    83    1
    87    47    84    1
    88    47    85    1
    89    48    86    1
    90    48    87    1
    91    48    88    1
