DT1
  Mrv15b2303062314062D          

 28 31  0  0  0  0            999 V2000
   -3.5440   -3.3025    0.0000 O   0  0  0  0  0  0  0  0  0  0  0  0
   -2.8295   -2.8900    0.0000 S   0  0  0  0  0  0  0  0  0  0  0  0
   -2.4170   -3.6045    0.0000 O   0  0  0  0  0  0  0  0  0  0  0  0
   -3.2420   -2.1756    0.0000 N   0  0  0  0  0  0  0  0  0  0  0  0
   -2.1151   -2.4775    0.0000 C   0  0  0  0  0  0  0  0  0  0  0  0
   -2.1151   -1.6525    0.0000 C   0  0  0  0  0  0  0  0  0  0  0  0
   -1.4006   -2.8900    0.0000 C   0  0  0  0  0  0  0  0  0  0  0  0
   -0.6861   -2.4775    0.0000 C   0  0  0  0  0  0  0  0  0  0  0  0
   -1.4006   -1.2400    0.0000 C   0  0  0  0  0  0  0  0  0  0  0  0
   -0.6861   -1.6525    0.0000 C   0  0  0  0  0  0  0  0  0  0  0  0
    0.0284   -1.2400    0.0000 N   0  0  0  0  0  0  0  0  0  0  0  0
    0.0284   -0.4150    0.0000 C   0  0  0  0  0  0  0  0  0  0  0  0
   -0.6861   -0.0025    0.0000 N   0  0  0  0  0  0  0  0  0  0  0  0
   -0.6861    0.8225    0.0000 C   0  0  0  0  0  0  0  0  0  0  0  0
    0.0284    1.2350    0.0000 N   0  0  0  0  0  0  0  0  0  0  0  0
   -1.4707    1.0774    0.0000 N   0  0  0  0  0  0  0  0  0  0  0  0
   -1.9557    0.4100    0.0000 C   0  0  0  0  0  0  0  0  0  0  0  0
   -1.4707   -0.2575    0.0000 N   0  0  0  0  0  0  0  0  0  0  0  0
    0.7428   -0.0025    0.0000 C   0  0  0  0  0  0  0  0  0  0  0  0
    0.7428    0.8225    0.0000 C   0  0  0  0  0  0  0  0  0  0  0  0
    1.4573    2.0600    0.0000 C   0  0  0  0  0  0  0  0  0  0  0  0
    1.4573    1.2350    0.0000 O   0  0  0  0  0  0  0  0  0  0  0  0
    2.1718    2.4725    0.0000 C   0  0  0  0  0  0  0  0  0  0  0  0
    2.1718    3.2975    0.0000 C   0  0  0  0  0  0  0  0  0  0  0  0
    2.8862    3.7100    0.0000 C   0  0  0  0  0  0  0  0  0  0  0  0
    3.6007    3.2975    0.0000 C   0  0  0  0  0  0  0  0  0  0  0  0
    3.6007    2.4725    0.0000 C   0  0  0  0  0  0  0  0  0  0  0  0
    2.8862    2.0600    0.0000 C   0  0  0  0  0  0  0  0  0  0  0  0
  1  2  2  0  0  0  0
  2  3  2  0  0  0  0
  2  4  1  0  0  0  0
  2  5  1  0  0  0  0
  5  6  4  0  0  0  0
  5  7  4  0  0  0  0
  6  9  4  0  0  0  0
  7  8  4  0  0  0  0
  8 10  4  0  0  0  0
  9 10  4  0  0  0  0
 10 11  1  0  0  0  0
 11 12  1  0  0  0  0
 12 13  4  0  0  0  0
 12 19  4  0  0  0  0
 13 14  4  0  0  0  0
 13 18  4  0  0  0  0
 14 15  4  0  0  0  0
 14 16  4  0  0  0  0
 15 20  4  0  0  0  0
 16 17  4  0  0  0  0
 17 18  4  0  0  0  0
 19 20  4  0  0  0  0
 20 22  1  0  0  0  0
 21 22  1  0  0  0  0
 21 23  1  0  0  0  0
 23 24  1  0  0  0  0
 23 28  1  0  0  0  0
 24 25  1  0  0  0  0
 25 26  1  0  0  0  0
 26 27  1  0  0  0  0
 27 28  1  0  0  0  0
M  END
