DT1
  -OEChem-12112021243D

 50 53  0     0  0  0  0  0  0999 V2000
    5.6510    1.8740    1.8650 O   0  0  0  0  0  0  0  0  0  0  0  0
    6.0600    1.1830    0.6930 S   0  0  0  0  0  0  0  0  0  0  0  0
    6.8840    1.7190   -0.3340 O   0  0  0  0  0  0  0  0  0  0  0  0
    6.8340   -0.1820    1.2230 N   0  0  0  0  0  0  0  0  0  0  0  0
    4.5750    0.6700   -0.1040 C   0  0  0  0  0  0  0  0  0  0  0  0
    3.4080    0.5430    0.6280 C   0  0  0  0  0  0  0  0  0  0  0  0
    4.5760    0.4010   -1.4600 C   0  0  0  0  0  0  0  0  0  0  0  0
    3.4150   -0.0060   -2.0870 C   0  0  0  0  0  0  0  0  0  0  0  0
    2.2420    0.1420    0.0070 C   0  0  0  0  0  0  0  0  0  0  0  0
    2.2410   -0.1350   -1.3550 C   0  0  0  0  0  0  0  0  0  0  0  0
    1.0630   -0.5410   -1.9870 N   0  0  0  0  0  0  0  0  0  0  0  0
   -0.0640   -0.8080   -1.2380 C   0  0  0  0  0  0  0  0  0  0  0  0
   -0.0380   -1.7610   -0.2580 N   0  0  0  0  0  0  0  0  0  0  0  0
   -1.1560   -2.0170    0.4850 C   0  0  0  0  0  0  0  0  0  0  0  0
   -2.2900   -1.3470    0.2530 N   0  0  0  0  0  0  0  0  0  0  0  0
   -0.8390   -2.9700    1.3540 N   0  0  0  0  0  0  0  0  0  0  0  0
    0.4320   -3.3190    1.1930 C   0  0  0  0  0  0  0  0  0  0  0  0
    0.9640   -2.6110    0.2280 N   0  0  0  0  0  0  0  0  0  0  0  0
   -1.2290   -0.1280   -1.4680 C   0  0  0  0  0  0  0  0  0  0  0  0
   -2.3550   -0.4230   -0.6900 C   0  0  0  0  0  0  0  0  0  0  0  0
   -4.4650   -0.2730    0.0300 C   0  0  0  0  0  0  0  0  0  0  0  0
   -3.5160    0.2420   -0.9050 O   0  0  0  0  0  0  0  0  0  0  0  0
   -5.8060    0.4390   -0.1600 C   0  0  0  0  0  0  0  0  0  0  0  0
   -6.8560   -0.1970    0.7540 C   0  0  0  0  0  0  0  0  0  0  0  0
   -8.1960    0.5150    0.5630 C   0  0  0  0  0  0  0  0  0  0  0  0
   -8.0420    1.9960    0.9160 C   0  0  0  0  0  0  0  0  0  0  0  0
   -6.9930    2.6320    0.0020 C   0  0  0  0  0  0  0  0  0  0  0  0
   -5.6520    1.9200    0.1930 C   0  0  0  0  0  0  0  0  0  0  0  0
    7.0150   -0.3010    2.1680 H   0  0  0  0  0  0  0  0  0  0  0  0
    7.1020   -0.8650    0.5880 H   0  0  0  0  0  0  0  0  0  0  0  0
    3.4090    0.7580    1.6860 H   0  0  0  0  0  0  0  0  0  0  0  0
    5.4890    0.5020   -2.0290 H   0  0  0  0  0  0  0  0  0  0  0  0
    3.4180   -0.2200   -3.1450 H   0  0  0  0  0  0  0  0  0  0  0  0
    1.3310    0.0420    0.5790 H   0  0  0  0  0  0  0  0  0  0  0  0
    1.0370   -0.6350   -2.9520 H   0  0  0  0  0  0  0  0  0  0  0  0
    0.9480   -4.0720    1.7700 H   0  0  0  0  0  0  0  0  0  0  0  0
   -1.2780    0.6270   -2.2390 H   0  0  0  0  0  0  0  0  0  0  0  0
   -4.5950   -1.3430   -0.1350 H   0  0  0  0  0  0  0  0  0  0  0  0
   -4.1050   -0.1030    1.0450 H   0  0  0  0  0  0  0  0  0  0  0  0
   -6.1240    0.3440   -1.1990 H   0  0  0  0  0  0  0  0  0  0  0  0
   -6.9650   -1.2520    0.5020 H   0  0  0  0  0  0  0  0  0  0  0  0
   -6.5380   -0.1020    1.7920 H   0  0  0  0  0  0  0  0  0  0  0  0
   -8.5140    0.4200   -0.4750 H   0  0  0  0  0  0  0  0  0  0  0  0
   -8.9440    0.0620    1.2140 H   0  0  0  0  0  0  0  0  0  0  0  0
   -8.9980    2.5030    0.7800 H   0  0  0  0  0  0  0  0  0  0  0  0
   -7.7250    2.0910    1.9550 H   0  0  0  0  0  0  0  0  0  0  0  0
   -7.3100    2.5370   -1.0360 H   0  0  0  0  0  0  0  0  0  0  0  0
   -6.8830    3.6860    0.2540 H   0  0  0  0  0  0  0  0  0  0  0  0
   -5.3350    2.0140    1.2310 H   0  0  0  0  0  0  0  0  0  0  0  0
   -4.9050    2.3720   -0.4590 H   0  0  0  0  0  0  0  0  0  0  0  0
  1  2  2  0  0  0  0
  2  3  2  0  0  0  0
  2  4  1  0  0  0  0
  2  5  1  0  0  0  0
  4 29  1  0  0  0  0
  4 30  1  0  0  0  0
  5  6  2  0  0  0  0
  5  7  1  0  0  0  0
  6  9  1  0  0  0  0
  6 31  1  0  0  0  0
  7  8  2  0  0  0  0
  7 32  1  0  0  0  0
  8 10  1  0  0  0  0
  8 33  1  0  0  0  0
  9 10  2  0  0  0  0
  9 34  1  0  0  0  0
 10 11  1  0  0  0  0
 11 12  1  0  0  0  0
 11 35  1  0  0  0  0
 12 13  1  0  0  0  0
 12 19  2  0  0  0  0
 13 14  1  0  0  0  0
 13 18  1  0  0  0  0
 14 15  1  0  0  0  0
 14 16  2  0  0  0  0
 15 20  2  0  0  0  0
 16 17  1  0  0  0  0
 17 18  2  0  0  0  0
 17 36  1  0  0  0  0
 19 20  1  0  0  0  0
 19 37  1  0  0  0  0
 20 22  1  0  0  0  0
 21 22  1  0  0  0  0
 21 23  1  0  0  0  0
 21 38  1  0  0  0  0
 21 39  1  0  0  0  0
 23 24  1  0  0  0  0
 23 28  1  0  0  0  0
 23 40  1  0  0  0  0
 24 25  1  0  0  0  0
 24 41  1  0  0  0  0
 24 42  1  0  0  0  0
 25 26  1  0  0  0  0
 25 43  1  0  0  0  0
 25 44  1  0  0  0  0
 26 27  1  0  0  0  0
 26 45  1  0  0  0  0
 26 46  1  0  0  0  0
 27 28  1  0  0  0  0
 27 47  1  0  0  0  0
 27 48  1  0  0  0  0
 28 49  1  0  0  0  0
 28 50  1  0  0  0  0
M  END
> <OPENEYE_ISO_SMILES>
c1cc(ccc1Nc2cc(nc3n2ncn3)OCC4CCCCC4)S(=O)(=O)N

> <OPENEYE_INCHI>
InChI=1S/C18H22N6O3S/c19-28(25,26)15-8-6-14(7-9-15)22-16-10-17(23-18-20-12-21-24(16)18)27-11-13-4-2-1-3-5-13/h6-10,12-13,22H,1-5,11H2,(H2,19,25,26)

> <OPENEYE_INCHIKEY>
NMAZGYDYIYLSLJ-UHFFFAOYSA-N

> <FORMULA>
C18H22N6O3S

$$$$
