@<TRIPOS>MOLECULE
DT1
 50 53 0 0 0
SMALL
GASTEIGER

@<TRIPOS>ATOM
      1 O           5.6510    1.8740    1.8650 O.2     1  LIG1       -0.1533
      2 S           6.0600    1.1830    0.6930 S.O2    1  LIG1        0.0559
      3 O           6.8840    1.7190   -0.3340 O.2     1  LIG1       -0.1533
      4 N           6.8340   -0.1820    1.2230 N.3     1  LIG1       -0.2035
      5 C           4.5750    0.6700   -0.1040 C.ar    1  LIG1        0.1051
      6 C           3.4080    0.5430    0.6280 C.ar    1  LIG1       -0.0336
      7 C           4.5760    0.4010   -1.4600 C.ar    1  LIG1       -0.0336
      8 C           3.4150   -0.0060   -2.0870 C.ar    1  LIG1       -0.0387
      9 C           2.2420    0.1420    0.0070 C.ar    1  LIG1       -0.0387
     10 C           2.2410   -0.1350   -1.3550 C.ar    1  LIG1        0.0325
     11 N           1.0630   -0.5410   -1.9870 N.pl3   1  LIG1       -0.2992
     12 C          -0.0640   -0.8080   -1.2380 C.ar    1  LIG1        0.1333
     13 N          -0.0380   -1.7610   -0.2580 N.ar    1  LIG1       -0.1821
     14 C          -1.1560   -2.0170    0.4850 C.ar    1  LIG1        0.2576
     15 N          -2.2900   -1.3470    0.2530 N.ar    1  LIG1       -0.1754
     16 N          -0.8390   -2.9700    1.3540 N.ar    1  LIG1       -0.1973
     17 C           0.4320   -3.3190    1.1930 C.ar    1  LIG1        0.1406
     18 N           0.9640   -2.6110    0.2280 N.ar    1  LIG1       -0.1506
     19 C          -1.2290   -0.1280   -1.4680 C.ar    1  LIG1        0.0402
     20 C          -2.3550   -0.4230   -0.6900 C.ar    1  LIG1        0.2212
     21 C          -4.4650   -0.2730    0.0300 C.3     1  LIG1        0.0940
     22 O          -3.5160    0.2420   -0.9050 O.3     1  LIG1       -0.4759
     23 C          -5.8060    0.4390   -0.1600 C.3     1  LIG1       -0.0067
     24 C          -6.8560   -0.1970    0.7540 C.3     1  LIG1       -0.0471
     25 C          -8.1960    0.5150    0.5630 C.3     1  LIG1       -0.0527
     26 C          -8.0420    1.9960    0.9160 C.3     1  LIG1       -0.0530
     27 C          -6.9930    2.6320    0.0020 C.3     1  LIG1       -0.0527
     28 C          -5.6520    1.9200    0.1930 C.3     1  LIG1       -0.0471
     29 H           7.0150   -0.3010    2.1680 H       1  LIG1        0.1442
     30 H           7.1020   -0.8650    0.5880 H       1  LIG1        0.1442
     31 H           3.4090    0.7580    1.6860 H       1  LIG1        0.0638
     32 H           5.4890    0.5020   -2.0290 H       1  LIG1        0.0638
     33 H           3.4180   -0.2200   -3.1450 H       1  LIG1        0.0637
     34 H           1.3310    0.0420    0.5790 H       1  LIG1        0.0637
     35 H           1.0370   -0.6350   -2.9520 H       1  LIG1        0.1536
     36 H           0.9480   -4.0720    1.7700 H       1  LIG1        0.1066
     37 H          -1.2780    0.6270   -2.2390 H       1  LIG1        0.0705
     38 H          -4.5950   -1.3430   -0.1350 H       1  LIG1        0.0700
     39 H          -4.1050   -0.1030    1.0450 H       1  LIG1        0.0700
     40 H          -6.1240    0.3440   -1.1990 H       1  LIG1        0.0334
     41 H          -6.9650   -1.2520    0.5020 H       1  LIG1        0.0269
     42 H          -6.5380   -0.1020    1.7920 H       1  LIG1        0.0269
     43 H          -8.5140    0.4200   -0.4750 H       1  LIG1        0.0265
     44 H          -8.9440    0.0620    1.2140 H       1  LIG1        0.0265
     45 H          -8.9980    2.5030    0.7800 H       1  LIG1        0.0265
     46 H          -7.7250    2.0910    1.9550 H       1  LIG1        0.0265
     47 H          -7.3100    2.5370   -1.0360 H       1  LIG1        0.0265
     48 H          -6.8830    3.6860    0.2540 H       1  LIG1        0.0265
     49 H          -5.3350    2.0140    1.2310 H       1  LIG1        0.0269
     50 H          -4.9050    2.3720   -0.4590 H       1  LIG1        0.0269
@<TRIPOS>BOND
     1     1     2    2
     2     2     3    2
     3     2     4    1
     4     2     5    1
     5     4    29    1
     6     4    30    1
     7     5     6   ar
     8     5     7   ar
     9     6     9   ar
    10     6    31    1
    11     7     8   ar
    12     7    32    1
    13     8    10   ar
    14     8    33    1
    15     9    10   ar
    16     9    34    1
    17    10    11    1
    18    11    12    1
    19    11    35    1
    20    12    13   ar
    21    12    19   ar
    22    13    14   ar
    23    13    18   ar
    24    14    15   ar
    25    14    16   ar
    26    15    20   ar
    27    16    17   ar
    28    17    18   ar
    29    17    36    1
    30    19    20   ar
    31    19    37    1
    32    20    22    1
    33    21    22    1
    34    21    23    1
    35    21    38    1
    36    21    39    1
    37    23    24    1
    38    23    28    1
    39    23    40    1
    40    24    25    1
    41    24    41    1
    42    24    42    1
    43    25    26    1
    44    25    43    1
    45    25    44    1
    46    26    27    1
    47    26    45    1
    48    26    46    1
    49    27    28    1
    50    27    47    1
    51    27    48    1
    52    28    49    1
    53    28    50    1
