@<TRIPOS>MOLECULE
CMG
 35 37 0 0 0
SMALL
GASTEIGER

@<TRIPOS>ATOM
      1 N           1.3010    0.0100   -1.1300 N.ar    1  LIG1       -0.1777
      2 C           1.8340    0.1740   -2.3340 C.ar    1  LIG1        0.2176
      3 N           1.0980    0.1990   -3.4340 N.ar    1  LIG1       -0.1950
      4 C          -0.2210    0.0620   -3.3660 C.ar    1  LIG1        0.1665
      5 C          -0.8280   -0.1080   -2.1100 C.ar    1  LIG1        0.1690
      6 C          -0.0080   -0.1280   -0.9720 C.ar    1  LIG1        0.2476
      7 O          -0.5420   -0.2910    0.2620 O.3     1  LIG1       -0.4745
      8 C           0.5440   -0.2650    1.1890 C.3     1  LIG1        0.0941
      9 N          -2.1620   -0.2210   -2.3240 N.ar    1  LIG1       -0.2289
     10 C          -2.4050   -0.1310   -3.5990 C.ar    1  LIG1        0.0958
     11 N          -1.2390    0.0430   -4.2850 N.ar    1  LIG1       -0.3291
     12 N           3.2070    0.3200   -2.4440 N.pl3   1  LIG1       -0.3273
     13 C           0.0070   -0.4450    2.6100 C.3     1  LIG1       -0.0067
     14 C           1.1710   -0.4180    3.6030 C.3     1  LIG1       -0.0471
     15 C           0.6330   -0.5980    5.0240 C.3     1  LIG1       -0.0527
     16 C          -0.3390    0.5370    5.3480 C.3     1  LIG1       -0.0530
     17 C          -1.5030    0.5100    4.3560 C.3     1  LIG1       -0.0527
     18 C          -0.9660    0.6890    2.9340 C.3     1  LIG1       -0.0471
     19 H           1.2380   -1.0740    0.9580 H       1  LIG1        0.0700
     20 H           1.0630    0.6890    1.1150 H       1  LIG1        0.0700
     21 H          -3.3860   -0.1880   -4.0480 H       1  LIG1        0.1027
     22 H          -1.1470    0.1380   -5.2460 H       1  LIG1        0.1682
     23 H           3.7620    0.3040   -1.6480 H       1  LIG1        0.1452
     24 H           3.6140    0.4330   -3.3170 H       1  LIG1        0.1452
     25 H          -0.5110   -1.4010    2.6840 H       1  LIG1        0.0334
     26 H           1.8640   -1.2270    3.3720 H       1  LIG1        0.0269
     27 H           1.6890    0.5370    3.5290 H       1  LIG1        0.0269
     28 H           0.1140   -1.5530    5.0980 H       1  LIG1        0.0265
     29 H           1.4620   -0.5780    5.7310 H       1  LIG1        0.0265
     30 H          -0.7220    0.4090    6.3610 H       1  LIG1        0.0265
     31 H           0.1790    1.4920    5.2740 H       1  LIG1        0.0265
     32 H          -2.0220   -0.4450    4.4300 H       1  LIG1        0.0265
     33 H          -2.1970    1.3180    4.5870 H       1  LIG1        0.0265
     34 H          -0.4470    1.6450    2.8600 H       1  LIG1        0.0269
     35 H          -1.7950    0.6700    2.2270 H       1  LIG1        0.0269
@<TRIPOS>BOND
     1     1     2   ar
     2     1     6   ar
     3     2     3   ar
     4     2    12    1
     5     3     4   ar
     6     4     5   ar
     7     4    11   ar
     8     5     6   ar
     9     5     9   ar
    10     6     7    1
    11     7     8    1
    12     8    13    1
    13     8    19    1
    14     8    20    1
    15     9    10   ar
    16    10    11   ar
    17    10    21    1
    18    11    22    1
    19    12    23    1
    20    12    24    1
    21    13    14    1
    22    13    18    1
    23    13    25    1
    24    14    15    1
    25    14    26    1
    26    14    27    1
    27    15    16    1
    28    15    28    1
    29    15    29    1
    30    16    17    1
    31    16    30    1
    32    16    31    1
    33    17    18    1
    34    17    32    1
    35    17    33    1
    36    18    34    1
    37    18    35    1
