CMG
  -OEChem-07022119143D

 35 37  0     0  0  0  0  0  0999 V2000
    1.3010    0.0100   -1.1300 N   0  0  0  0  0  0  0  0  0  0  0  0
    1.8340    0.1740   -2.3340 C   0  0  0  0  0  0  0  0  0  0  0  0
    1.0980    0.1990   -3.4340 N   0  0  0  0  0  0  0  0  0  0  0  0
   -0.2210    0.0620   -3.3660 C   0  0  0  0  0  0  0  0  0  0  0  0
   -0.8280   -0.1080   -2.1100 C   0  0  0  0  0  0  0  0  0  0  0  0
   -0.0080   -0.1280   -0.9720 C   0  0  0  0  0  0  0  0  0  0  0  0
   -0.5420   -0.2910    0.2620 O   0  0  0  0  0  0  0  0  0  0  0  0
    0.5440   -0.2650    1.1890 C   0  0  0  0  0  0  0  0  0  0  0  0
   -2.1620   -0.2210   -2.3240 N   0  0  0  0  0  0  0  0  0  0  0  0
   -2.4050   -0.1310   -3.5990 C   0  0  0  0  0  0  0  0  0  0  0  0
   -1.2390    0.0430   -4.2850 N   0  0  0  0  0  0  0  0  0  0  0  0
    3.2070    0.3200   -2.4440 N   0  0  0  0  0  0  0  0  0  0  0  0
    0.0070   -0.4450    2.6100 C   0  0  0  0  0  0  0  0  0  0  0  0
    1.1710   -0.4180    3.6030 C   0  0  0  0  0  0  0  0  0  0  0  0
    0.6330   -0.5980    5.0240 C   0  0  0  0  0  0  0  0  0  0  0  0
   -0.3390    0.5370    5.3480 C   0  0  0  0  0  0  0  0  0  0  0  0
   -1.5030    0.5100    4.3560 C   0  0  0  0  0  0  0  0  0  0  0  0
   -0.9660    0.6890    2.9340 C   0  0  0  0  0  0  0  0  0  0  0  0
    1.2380   -1.0740    0.9580 H   0  0  0  0  0  0  0  0  0  0  0  0
    1.0630    0.6890    1.1150 H   0  0  0  0  0  0  0  0  0  0  0  0
   -3.3860   -0.1880   -4.0480 H   0  0  0  0  0  0  0  0  0  0  0  0
   -1.1470    0.1380   -5.2460 H   0  0  0  0  0  0  0  0  0  0  0  0
    3.7620    0.3040   -1.6480 H   0  0  0  0  0  0  0  0  0  0  0  0
    3.6140    0.4330   -3.3170 H   0  0  0  0  0  0  0  0  0  0  0  0
   -0.5110   -1.4010    2.6840 H   0  0  0  0  0  0  0  0  0  0  0  0
    1.8640   -1.2270    3.3720 H   0  0  0  0  0  0  0  0  0  0  0  0
    1.6890    0.5370    3.5290 H   0  0  0  0  0  0  0  0  0  0  0  0
    0.1140   -1.5530    5.0980 H   0  0  0  0  0  0  0  0  0  0  0  0
    1.4620   -0.5780    5.7310 H   0  0  0  0  0  0  0  0  0  0  0  0
   -0.7220    0.4090    6.3610 H   0  0  0  0  0  0  0  0  0  0  0  0
    0.1790    1.4920    5.2740 H   0  0  0  0  0  0  0  0  0  0  0  0
   -2.0220   -0.4450    4.4300 H   0  0  0  0  0  0  0  0  0  0  0  0
   -2.1970    1.3180    4.5870 H   0  0  0  0  0  0  0  0  0  0  0  0
   -0.4470    1.6450    2.8600 H   0  0  0  0  0  0  0  0  0  0  0  0
   -1.7950    0.6700    2.2270 H   0  0  0  0  0  0  0  0  0  0  0  0
  1  2  2  0  0  0  0
  1  6  1  0  0  0  0
  2  3  1  0  0  0  0
  2 12  1  0  0  0  0
  3  4  2  0  0  0  0
  4  5  1  0  0  0  0
  4 11  1  0  0  0  0
  5  6  2  0  0  0  0
  5  9  1  0  0  0  0
  6  7  1  0  0  0  0
  7  8  1  0  0  0  0
  8 13  1  0  0  0  0
  8 19  1  0  0  0  0
  8 20  1  0  0  0  0
  9 10  2  0  0  0  0
 10 11  1  0  0  0  0
 10 21  1  0  0  0  0
 11 22  1  0  0  0  0
 12 23  1  0  0  0  0
 12 24  1  0  0  0  0
 13 14  1  0  0  0  0
 13 18  1  0  0  0  0
 13 25  1  0  0  0  0
 14 15  1  0  0  0  0
 14 26  1  0  0  0  0
 14 27  1  0  0  0  0
 15 16  1  0  0  0  0
 15 28  1  0  0  0  0
 15 29  1  0  0  0  0
 16 17  1  0  0  0  0
 16 30  1  0  0  0  0
 16 31  1  0  0  0  0
 17 18  1  0  0  0  0
 17 32  1  0  0  0  0
 17 33  1  0  0  0  0
 18 34  1  0  0  0  0
 18 35  1  0  0  0  0
M  END
> <OPENEYE_ISO_SMILES>
c1[nH]c2c(n1)c(nc(n2)N)OCC3CCCCC3

> <OPENEYE_INCHI>
InChI=1S/C12H17N5O/c13-12-16-10-9(14-7-15-10)11(17-12)18-6-8-4-2-1-3-5-8/h7-8H,1-6H2,(H3,13,14,15,16,17)

> <OPENEYE_INCHIKEY>
MWGXGTJJAOZBNW-UHFFFAOYSA-N

> <FORMULA>
C12H17N5O

$$$$
