CMG
  Mrv15b2303062313542D          

 18 20  0  0  0  0            999 V2000
    1.1773   -0.9872    0.0000 N   0  0  0  0  0  0  0  0  0  0  0  0
    1.1773   -1.8122    0.0000 C   0  0  0  0  0  0  0  0  0  0  0  0
    0.4628   -2.2247    0.0000 N   0  0  0  0  0  0  0  0  0  0  0  0
   -0.2517   -1.8122    0.0000 C   0  0  0  0  0  0  0  0  0  0  0  0
   -0.2517   -0.9872    0.0000 C   0  0  0  0  0  0  0  0  0  0  0  0
    0.4628   -0.5747    0.0000 C   0  0  0  0  0  0  0  0  0  0  0  0
    0.4628    0.2503    0.0000 O   0  0  0  0  0  0  0  0  0  0  0  0
   -0.2517    0.6628    0.0000 C   0  0  0  0  0  0  0  0  0  0  0  0
   -1.0363   -0.7323    0.0000 N   0  0  0  0  0  0  0  0  0  0  0  0
   -1.5212   -1.3997    0.0000 C   0  0  0  0  0  0  0  0  0  0  0  0
   -1.0363   -2.0672    0.0000 N   0  0  0  0  0  0  0  0  0  0  0  0
    1.8918   -2.2247    0.0000 N   0  0  0  0  0  0  0  0  0  0  0  0
   -0.2517    1.4878    0.0000 C   0  0  0  0  0  0  0  0  0  0  0  0
   -0.9661    1.9003    0.0000 C   0  0  0  0  0  0  0  0  0  0  0  0
   -0.9661    2.7253    0.0000 C   0  0  0  0  0  0  0  0  0  0  0  0
   -0.2517    3.1378    0.0000 C   0  0  0  0  0  0  0  0  0  0  0  0
    0.4628    2.7253    0.0000 C   0  0  0  0  0  0  0  0  0  0  0  0
    0.4628    1.9003    0.0000 C   0  0  0  0  0  0  0  0  0  0  0  0
  1  2  4  0  0  0  0
  1  6  4  0  0  0  0
  2  3  4  0  0  0  0
  2 12  1  0  0  0  0
  3  4  4  0  0  0  0
  4  5  4  0  0  0  0
  4 11  4  0  0  0  0
  5  6  4  0  0  0  0
  5  9  4  0  0  0  0
  6  7  1  0  0  0  0
  7  8  1  0  0  0  0
  8 13  1  0  0  0  0
  9 10  4  0  0  0  0
 10 11  4  0  0  0  0
 13 14  1  0  0  0  0
 13 18  1  0  0  0  0
 14 15  1  0  0  0  0
 15 16  1  0  0  0  0
 16 17  1  0  0  0  0
 17 18  1  0  0  0  0
M  STY  1   1 DAT
M  SAL   1  1  11
M  SDT   1 MRV_IMPLICIT_H                                        
M  SDD   1     0.0000    0.0000    DR    ALL  0       0  
M  SED   1 IMPL_H1
M  END
