@<TRIPOS>MOLECULE
SP0
 41 44 0 0 0
SMALL
GASTEIGER

@<TRIPOS>ATOM
      1 C           7.2170   -2.0200   34.4910 C.ar    1  UNL1        0.1016
      2 N           8.1840   -2.7900   33.9920 N.ar    1  UNL1       -0.1641
      3 N           8.5090   -3.6510   34.8110 N.ar    1  UNL1       -0.2167
      4 C           7.7380   -3.5140   35.8880 C.ar    1  UNL1        0.1420
      5 C           6.9190   -2.4820   35.7020 C.ar    1  UNL1        0.0078
      6 N           7.7940   -4.2930   36.9680 N.pl3   1  UNL1       -0.1993
      7 S           8.0440   -3.7670   38.4940 S.O2    1  UNL1        0.0736
      8 O           8.8920   -4.7060   39.3070 O.2     1  UNL1       -0.1499
      9 O           8.6440   -2.4000   38.3160 O.2     1  UNL1       -0.1499
     10 C           6.5250   -3.5920   39.3170 C.ar    1  UNL1        0.1113
     11 C           5.8300   -2.4100   39.1090 C.ar    1  UNL1        0.0002
     12 C           4.6010   -2.2690   39.7340 C.ar    1  UNL1        0.1253
     13 C           4.0980   -3.2890   40.5370 C.ar    1  UNL1       -0.0263
     14 F           3.9420   -1.1090   39.5350 F       1  UNL1       -0.2054
     15 C           4.8070   -4.4710   40.7390 C.ar    1  UNL1       -0.0572
     16 C           6.0420   -4.6180   40.1220 C.ar    1  UNL1       -0.0349
     17 C           9.4160   -4.6090   34.6010 C.ar    1  UNL1        0.0676
     18 C          10.6210   -4.5750   35.2990 C.ar    1  UNL1       -0.0335
     19 C          11.5960   -5.5370   35.0870 C.ar    1  UNL1       -0.0244
     20 C          11.3490   -6.5310   34.1490 C.ar    1  UNL1        0.1235
     21 C          10.1610   -6.5730   33.4340 C.ar    1  UNL1       -0.0244
     22 F          12.2670   -7.4790   33.8910 F       1  UNL1       -0.2055
     23 C           9.1910   -5.6080   33.6620 C.ar    1  UNL1       -0.0335
     24 C           6.6120   -0.9450   33.8470 C.ar    1  UNL1        0.0393
     25 S           6.0440   -1.0020   32.2440 S.2     1  UNL1       -0.0951
     26 C           5.4330    0.5880   32.2120 C.ar    1  UNL1       -0.0237
     27 C           5.6840    1.0830   33.4180 C.ar    1  UNL1       -0.0541
     28 C           6.3020    0.2740   34.2750 C.ar    1  UNL1       -0.0454
     29 H           6.1605   -2.0951   36.3984 H       1  UNL1        0.0674
     30 H           7.6699   -5.3061   36.8295 H       1  UNL1        0.1752
     31 H           6.2395   -1.6130   38.4709 H       1  UNL1        0.0666
     32 H           3.1196   -3.1588   41.0225 H       1  UNL1        0.0646
     33 H           4.3972   -5.2706   41.3736 H       1  UNL1        0.0619
     34 H           6.6315   -5.5351   40.2682 H       1  UNL1        0.0637
     35 H          10.8015   -3.7726   36.0294 H       1  UNL1        0.0640
     36 H          12.5420   -5.5138   35.6478 H       1  UNL1        0.0647
     37 H           9.9894   -7.3661   32.6913 H       1  UNL1        0.0647
     38 H           8.2455   -5.6336   33.1005 H       1  UNL1        0.0640
     39 H           4.9367    1.0958   31.3719 H       1  UNL1        0.0693
     40 H           5.3962    2.1081   33.6944 H       1  UNL1        0.0623
     41 H           6.5463    0.6013   35.2964 H       1  UNL1        0.0629
@<TRIPOS>BOND
     1     2     1   ar
     2     3     2   ar
     3     4     3   ar
     4     5     4   ar
     5     5     1   ar
     6     6     4    1
     7     7     6    1
     8     8     7    2
     9     9     7    2
    10    10     7    1
    11    11    10   ar
    12    12    11   ar
    13    13    12   ar
    14    14    12    1
    15    15    13   ar
    16    16    15   ar
    17    16    10   ar
    18    17     3    1
    19    18    17   ar
    20    19    18   ar
    21    20    19   ar
    22    21    20   ar
    23    22    20    1
    24    23    21   ar
    25    23    17   ar
    26    24     1    1
    27    25    24   ar
    28    26    25   ar
    29    27    26   ar
    30    28    27   ar
    31    28    24   ar
    32     5    29    1
    33     6    30    1
    34    11    31    1
    35    13    32    1
    36    15    33    1
    37    16    34    1
    38    18    35    1
    39    19    36    1
    40    21    37    1
    41    23    38    1
    42    26    39    1
    43    27    40    1
    44    28    41    1
