SP0
 OpenBabel10252211533D

 41 44  0  0  0  0  0  0  0  0999 V2000
    7.2170   -2.0200   34.4910 C   0  0  0  0  0  0  0  0  0  0  0  0
    8.1840   -2.7900   33.9920 N   0  0  0  0  0  0  0  0  0  0  0  0
    8.5090   -3.6510   34.8110 N   0  0  0  0  0  0  0  0  0  0  0  0
    7.7380   -3.5140   35.8880 C   0  0  0  0  0  0  0  0  0  0  0  0
    6.9190   -2.4820   35.7020 C   0  0  0  0  0  0  0  0  0  0  0  0
    7.7940   -4.2930   36.9680 N   0  0  0  0  0  0  0  0  0  0  0  0
    8.0440   -3.7670   38.4940 S   0  0  0  0  0  0  0  0  0  0  0  0
    8.8920   -4.7060   39.3070 O   0  0  0  0  0  0  0  0  0  0  0  0
    8.6440   -2.4000   38.3160 O   0  0  0  0  0  0  0  0  0  0  0  0
    6.5250   -3.5920   39.3170 C   0  0  0  0  0  0  0  0  0  0  0  0
    5.8300   -2.4100   39.1090 C   0  0  0  0  0  0  0  0  0  0  0  0
    4.6010   -2.2690   39.7340 C   0  0  0  0  0  0  0  0  0  0  0  0
    4.0980   -3.2890   40.5370 C   0  0  0  0  0  0  0  0  0  0  0  0
    3.9420   -1.1090   39.5350 F   0  0  0  0  0  0  0  0  0  0  0  0
    4.8070   -4.4710   40.7390 C   0  0  0  0  0  0  0  0  0  0  0  0
    6.0420   -4.6180   40.1220 C   0  0  0  0  0  0  0  0  0  0  0  0
    9.4160   -4.6090   34.6010 C   0  0  0  0  0  0  0  0  0  0  0  0
   10.6210   -4.5750   35.2990 C   0  0  0  0  0  0  0  0  0  0  0  0
   11.5960   -5.5370   35.0870 C   0  0  0  0  0  0  0  0  0  0  0  0
   11.3490   -6.5310   34.1490 C   0  0  0  0  0  0  0  0  0  0  0  0
   10.1610   -6.5730   33.4340 C   0  0  0  0  0  0  0  0  0  0  0  0
   12.2670   -7.4790   33.8910 F   0  0  0  0  0  0  0  0  0  0  0  0
    9.1910   -5.6080   33.6620 C   0  0  0  0  0  0  0  0  0  0  0  0
    6.6120   -0.9450   33.8470 C   0  0  0  0  0  0  0  0  0  0  0  0
    6.0440   -1.0020   32.2440 S   0  0  0  0  0  0  0  0  0  0  0  0
    5.4330    0.5880   32.2120 C   0  0  0  0  0  0  0  0  0  0  0  0
    5.6840    1.0830   33.4180 C   0  0  0  0  0  0  0  0  0  0  0  0
    6.3020    0.2740   34.2750 C   0  0  0  0  0  0  0  0  0  0  0  0
    6.1605   -2.0951   36.3984 H   0  0  0  0  0  0  0  0  0  0  0  0
    7.6699   -5.3061   36.8295 H   0  0  0  0  0  0  0  0  0  0  0  0
    6.2395   -1.6130   38.4709 H   0  0  0  0  0  0  0  0  0  0  0  0
    3.1196   -3.1588   41.0225 H   0  0  0  0  0  0  0  0  0  0  0  0
    4.3972   -5.2706   41.3736 H   0  0  0  0  0  0  0  0  0  0  0  0
    6.6315   -5.5351   40.2682 H   0  0  0  0  0  0  0  0  0  0  0  0
   10.8015   -3.7726   36.0294 H   0  0  0  0  0  0  0  0  0  0  0  0
   12.5420   -5.5138   35.6478 H   0  0  0  0  0  0  0  0  0  0  0  0
    9.9894   -7.3661   32.6913 H   0  0  0  0  0  0  0  0  0  0  0  0
    8.2455   -5.6336   33.1005 H   0  0  0  0  0  0  0  0  0  0  0  0
    4.9367    1.0958   31.3719 H   0  0  0  0  0  0  0  0  0  0  0  0
    5.3962    2.1081   33.6944 H   0  0  0  0  0  0  0  0  0  0  0  0
    6.5463    0.6013   35.2964 H   0  0  0  0  0  0  0  0  0  0  0  0
  2  1  2  0  0  0  0
  3  2  1  0  0  0  0
  4  3  1  0  0  0  0
  5  4  2  0  0  0  0
  5  1  1  0  0  0  0
  5 29  1  0  0  0  0
  6  4  1  0  0  0  0
  6 30  1  0  0  0  0
  7  6  1  0  0  0  0
  8  7  2  0  0  0  0
  9  7  2  0  0  0  0
 10  7  1  0  0  0  0
 11 10  2  0  0  0  0
 11 31  1  0  0  0  0
 12 11  1  0  0  0  0
 13 12  2  0  0  0  0
 13 32  1  0  0  0  0
 14 12  1  0  0  0  0
 15 13  1  0  0  0  0
 15 33  1  0  0  0  0
 16 15  2  0  0  0  0
 16 10  1  0  0  0  0
 16 34  1  0  0  0  0
 17  3  1  0  0  0  0
 18 17  2  0  0  0  0
 18 35  1  0  0  0  0
 19 18  1  0  0  0  0
 19 36  1  0  0  0  0
 20 19  2  0  0  0  0
 21 20  1  0  0  0  0
 21 37  1  0  0  0  0
 22 20  1  0  0  0  0
 23 21  2  0  0  0  0
 23 17  1  0  0  0  0
 23 38  1  0  0  0  0
 24  1  1  0  0  0  0
 25 24  1  0  0  0  0
 26 25  1  0  0  0  0
 26 39  1  0  0  0  0
 27 26  2  0  0  0  0
 27 40  1  0  0  0  0
 28 27  1  0  0  0  0
 28 24  2  0  0  0  0
 28 41  1  0  0  0  0
M  END
$$$$
