@<TRIPOS>MOLECULE
2D9
 54 57 0 0 0
SMALL
GASTEIGER

@<TRIPOS>ATOM
      1 N           0.5740    7.9100   26.7210 N.pl3   1  UNL1       -0.3246
      2 C          -0.0210    7.4920   25.4340 C.3     1  UNL1        0.0251
      3 C           0.7570    6.3020   24.7890 C.3     1  UNL1        0.0150
      4 N           1.2240    5.2430   25.7470 N.3     1  UNL1       -0.2952
      5 C           1.8660    5.7470   26.9990 C.3     1  UNL1        0.0150
      6 C           1.8280    7.2770   27.1460 C.3     1  UNL1        0.0251
      7 C          -0.0330    8.9280   27.4970 C.ar    1  UNL1        0.0756
      8 C          -0.0840    8.7920   28.8030 C.ar    1  UNL1        0.0708
      9 N          -0.6920    9.8900   29.2770 N.ar    1  UNL1       -0.1799
     10 N          -1.0420   10.6910   28.3830 N.ar    1  UNL1       -0.2750
     11 C          -0.6520   10.2150   27.2000 C.ar    1  UNL1        0.0902
     12 C          -0.8510   10.8520   25.9390 C.ar    1  UNL1        0.0446
     13 C           0.2230   11.1120   25.1130 C.ar    1  UNL1       -0.0271
     14 C          -2.1130   11.2420   25.4790 C.ar    1  UNL1        0.1296
     15 C           0.0620   11.7240   23.8590 C.ar    1  UNL1        0.0831
     16 CL          1.5050   12.0010   22.9350 Cl      1  UNL1       -0.0797
     17 C          -1.2150   12.0990   23.3530 C.ar    1  UNL1        0.1386
     18 C          -2.3130   11.8510   24.2260 C.ar    1  UNL1        0.0234
     19 O          -1.3890   12.6820   22.0720 O.3     1  UNL1       -0.5052
     20 O          -3.1900   11.0010   26.2520 O.3     1  UNL1       -0.5060
     21 C           2.0150    4.1720   25.0290 C.3     1  UNL1        0.0241
     22 C           2.6740    4.5420   23.6540 C.ar    1  UNL1       -0.0333
     23 C           1.9990    4.2290   22.4750 C.ar    1  UNL1       -0.0555
     24 C           2.5450    4.5220   21.2080 C.ar    1  UNL1       -0.0366
     25 C           3.7950    5.1330   21.0460 C.ar    1  UNL1        0.0879
     26 C           4.5010    5.4260   22.2340 C.ar    1  UNL1       -0.0366
     27 C           3.9490    5.1310   23.5120 C.ar    1  UNL1       -0.0555
     28 S           4.3860    5.4840   19.3310 S.O2    1  UNL1       -0.0059
     29 O           5.2290    4.3550   18.8140 O.2     1  UNL1       -0.1696
     30 O           5.0500    6.8340   19.1320 O.2     1  UNL1       -0.1696
     31 C           3.0770    5.4890   18.1010 C.3     1  UNL1        0.0596
     32 H          -1.0623    7.1829   25.6079 H       1  UNL1        0.0476
     33 H           0.0304    8.3460   24.7426 H       1  UNL1        0.0476
     34 H           0.0957    5.8244   24.0510 H       1  UNL1        0.0442
     35 H           1.6673    6.7370   24.3505 H       1  UNL1        0.0442
     36 H           1.3433    5.3033   27.8592 H       1  UNL1        0.0442
     37 H           2.9260    5.4567   26.9535 H       1  UNL1        0.0442
     38 H           1.9919    7.5222   28.2057 H       1  UNL1        0.0476
     39 H           2.6113    7.6693   26.4807 H       1  UNL1        0.0476
     40 H           0.2969    7.9445   29.3918 H       1  UNL1        0.0867
     41 H          -1.5490   11.5745   28.5355 H       1  UNL1        0.1890
     42 H           1.2335   10.8323   25.4457 H       1  UNL1        0.0641
     43 H          -3.3288   12.1388   23.9173 H       1  UNL1        0.0691
     44 H          -2.2955   12.9279   21.7590 H       1  UNL1        0.2922
     45 H          -4.0913   11.2699   25.9430 H       1  UNL1        0.2922
     46 H           2.8230    3.8538   25.7042 H       1  UNL1        0.0476
     47 H           1.2711    3.4012   24.7792 H       1  UNL1        0.0476
     48 H           1.0150    3.7409   22.5344 H       1  UNL1        0.0621
     49 H           1.9656    4.2600   20.3104 H       1  UNL1        0.0637
     50 H           5.4959    5.8908   22.1700 H       1  UNL1        0.0637
     51 H           4.5319    5.3685   24.4141 H       1  UNL1        0.0621
     52 H           2.0996    5.4927   18.6057 H       1  UNL1        0.0468
     53 H           3.1683    6.3868   17.4720 H       1  UNL1        0.0468
     54 H           3.1614    4.5905   17.4720 H       1  UNL1        0.0468
@<TRIPOS>BOND
     1     2     1    1
     2     3     2    1
     3     4     3    1
     4     5     4    1
     5     6     5    1
     6     6     1    1
     7     7     1    1
     8     8     7   ar
     9     9     8   ar
    10    10     9   ar
    11    11    10   ar
    12    11     7   ar
    13    12    11    1
    14    13    12   ar
    15    14    12   ar
    16    15    13   ar
    17    16    15    1
    18    17    15   ar
    19    18    17   ar
    20    18    14   ar
    21    19    17    1
    22    20    14    1
    23    21     4    1
    24    22    21    1
    25    23    22   ar
    26    24    23   ar
    27    25    24   ar
    28    26    25   ar
    29    27    26   ar
    30    27    22   ar
    31    28    25    1
    32    29    28    2
    33    30    28    2
    34    31    28    1
    35     2    32    1
    36     2    33    1
    37     3    34    1
    38     3    35    1
    39     5    36    1
    40     5    37    1
    41     6    38    1
    42     6    39    1
    43     8    40    1
    44    10    41    1
    45    13    42    1
    46    18    43    1
    47    19    44    1
    48    20    45    1
    49    21    46    1
    50    21    47    1
    51    23    48    1
    52    24    49    1
    53    26    50    1
    54    27    51    1
    55    31    52    1
    56    31    53    1
    57    31    54    1
