J07
 OpenBabel09142215213D

 51 54  0  0  0  0  0  0  0  0999 V2000
   24.1090   17.2870   28.0170 Cl  0  0  0  0  0  0  0  0  0  0  0  0
   24.2260   12.7630   28.4030 C   0  0  0  0  0  0  0  0  0  0  0  0
   23.1200   13.3860   28.8920 N   0  0  0  0  0  0  0  0  0  0  0  0
   23.0230   14.7710   28.8030 C   0  0  0  0  0  0  0  0  0  0  0  0
   24.0630   15.5740   28.2100 C   0  0  0  0  0  0  0  0  0  0  0  0
   25.1470   14.8250   27.7480 C   0  0  0  0  0  0  0  0  0  0  0  0
   25.2560   13.4510   27.8320 N   0  0  0  0  0  0  0  0  0  0  0  0
   24.2760   11.3710   28.5120 N   0  0  0  0  0  0  0  0  0  0  0  0
   23.7920   10.5900   29.6800 C   0  0  0  0  0  0  0  0  0  0  0  0
   24.2520    9.1150   29.5460 C   0  0  0  0  0  0  0  0  0  0  0  0
   23.7640    8.3100   30.7550 C   0  0  0  0  0  0  0  0  0  0  0  0
   22.2950    8.4100   30.9320 N   0  0  0  0  0  0  0  0  0  0  0  0
   21.5620    7.1930   31.0520 C   0  0  0  0  0  0  0  0  0  0  0  0
   21.7480    9.8150   30.9720 C   0  0  0  0  0  0  0  0  0  0  0  0
   20.2010    7.3360   31.2280 N   0  0  0  0  0  0  0  0  0  0  0  0
   22.0980    6.0840   31.0120 O   0  0  0  0  0  0  0  0  0  0  0  0
   22.2410   10.6350   29.7710 C   0  0  0  0  0  0  0  0  0  0  0  0
   19.5940    6.9930   32.5080 C   0  0  0  0  0  0  0  0  0  0  0  0
   18.4750    7.9560   32.8540 C   0  0  0  0  0  0  0  0  0  0  0  0
   21.7630   15.2690   29.3950 C   0  0  0  0  0  0  0  0  0  0  0  0
   21.1080   14.8330   30.5850 C   0  0  0  0  0  0  0  0  0  0  0  0
   21.3790   13.8290   31.5780 C   0  0  0  0  0  0  0  0  0  0  0  0
   19.9390   15.6300   30.7310 C   0  0  0  0  0  0  0  0  0  0  0  0
   20.4810   13.6730   32.6660 C   0  0  0  0  0  0  0  0  0  0  0  0
   19.3300   14.4880   32.7800 C   0  0  0  0  0  0  0  0  0  0  0  0
   19.0380   15.4810   31.8170 C   0  0  0  0  0  0  0  0  0  0  0  0
   19.9040   16.4980   29.6760 N   0  0  0  0  0  0  0  0  0  0  0  0
   20.9810   16.2940   28.8760 C   0  0  0  0  0  0  0  0  0  0  0  0
   25.9790   15.3721   27.2807 H   0  0  0  0  0  0  0  0  0  0  0  0
   24.6790   10.8461   27.7227 H   0  0  0  0  0  0  0  0  0  0  0  0
   24.2135   11.0351   30.5934 H   0  0  0  0  0  0  0  0  0  0  0  0
   23.8321    8.6832   28.6256 H   0  0  0  0  0  0  0  0  0  0  0  0
   25.3506    9.0784   29.5034 H   0  0  0  0  0  0  0  0  0  0  0  0
   24.0333    7.2533   30.6103 H   0  0  0  0  0  0  0  0  0  0  0  0
   24.2438    8.7230   31.6546 H   0  0  0  0  0  0  0  0  0  0  0  0
   20.6490    9.7733   30.9516 H   0  0  0  0  0  0  0  0  0  0  0  0
   22.0996   10.3005   31.8943 H   0  0  0  0  0  0  0  0  0  0  0  0
   19.6149    7.6846   30.4561 H   0  0  0  0  0  0  0  0  0  0  0  0
   21.8121   10.2183   28.8478 H   0  0  0  0  0  0  0  0  0  0  0  0
   21.9226   11.6801   29.8994 H   0  0  0  0  0  0  0  0  0  0  0  0
   19.1861    5.9730   32.4509 H   0  0  0  0  0  0  0  0  0  0  0  0
   20.3652    7.0563   33.2898 H   0  0  0  0  0  0  0  0  0  0  0  0
   18.3838    8.0345   33.9474 H   0  0  0  0  0  0  0  0  0  0  0  0
   18.7006    8.9468   32.4328 H   0  0  0  0  0  0  0  0  0  0  0  0
   17.5289    7.5853   32.4328 H   0  0  0  0  0  0  0  0  0  0  0  0
   22.2707   13.1902   31.4955 H   0  0  0  0  0  0  0  0  0  0  0  0
   20.6825   12.9084   33.4307 H   0  0  0  0  0  0  0  0  0  0  0  0
   18.6502   14.3464   33.6332 H   0  0  0  0  0  0  0  0  0  0  0  0
   18.1440   16.1156   31.9064 H   0  0  0  0  0  0  0  0  0  0  0  0
   19.1699   17.2018   29.5125 H   0  0  0  0  0  0  0  0  0  0  0  0
   21.2017   16.8550   27.9559 H   0  0  0  0  0  0  0  0  0  0  0  0
  3  2  2  0  0  0  0
  4  3  1  0  0  0  0
  5  4  2  0  0  0  0
  5  1  1  0  0  0  0
  6  5  1  0  0  0  0
  6 29  1  0  0  0  0
  7  6  2  0  0  0  0
  7  2  1  0  0  0  0
  8  2  1  0  0  0  0
  8 30  1  0  0  0  0
  9  8  1  0  0  0  0
  9 31  1  0  0  0  0
 10  9  1  0  0  0  0
 10 32  1  0  0  0  0
 10 33  1  0  0  0  0
 11 10  1  0  0  0  0
 11 34  1  0  0  0  0
 11 35  1  0  0  0  0
 12 11  1  0  0  0  0
 13 12  1  0  0  0  0
 14 12  1  0  0  0  0
 14 36  1  0  0  0  0
 14 37  1  0  0  0  0
 15 13  1  0  0  0  0
 15 38  1  0  0  0  0
 16 13  2  0  0  0  0
 17 14  1  0  0  0  0
 17  9  1  0  0  0  0
 17 39  1  0  0  0  0
 17 40  1  0  0  0  0
 18 15  1  0  0  0  0
 18 41  1  0  0  0  0
 18 42  1  0  0  0  0
 19 18  1  0  0  0  0
 19 43  1  0  0  0  0
 19 44  1  0  0  0  0
 19 45  1  0  0  0  0
 20  4  1  0  0  0  0
 21 20  1  0  0  0  0
 22 21  2  0  0  0  0
 22 46  1  0  0  0  0
 23 21  1  0  0  0  0
 24 22  1  0  0  0  0
 24 47  1  0  0  0  0
 25 24  2  0  0  0  0
 25 48  1  0  0  0  0
 26 23  2  0  0  0  0
 26 25  1  0  0  0  0
 26 49  1  0  0  0  0
 27 23  1  0  0  0  0
 27 50  1  0  0  0  0
 28 20  2  0  0  0  0
 28 27  1  0  0  0  0
 28 51  1  0  0  0  0
M  END
$$$$
