@<TRIPOS>MOLECULE
J07
 51 54 0 0 0
SMALL
GASTEIGER

@<TRIPOS>ATOM
      1 CL         24.1090   17.2870   28.0170 Cl      1  UNL1       -0.0797
      2 C          24.2260   12.7630   28.4030 C.ar    1  UNL1        0.2160
      3 N          23.1200   13.3860   28.8920 N.ar    1  UNL1       -0.2130
      4 C          23.0230   14.7710   28.8030 C.ar    1  UNL1        0.0963
      5 C          24.0630   15.5740   28.2100 C.ar    1  UNL1        0.0851
      6 C          25.1470   14.8250   27.7480 C.ar    1  UNL1        0.0516
      7 N          25.2560   13.4510   27.8320 N.ar    1  UNL1       -0.2214
      8 N          24.2760   11.3710   28.5120 N.pl3   1  UNL1       -0.3105
      9 C          23.7920   10.5900   29.6800 C.3     1  UNL1        0.0262
     10 C          24.2520    9.1150   29.5460 C.3     1  UNL1       -0.0185
     11 C          23.7640    8.3100   30.7550 C.3     1  UNL1        0.0178
     12 N          22.2950    8.4100   30.9320 N.am    1  UNL1       -0.2855
     13 C          21.5620    7.1930   31.0520 C.2     1  UNL1        0.3022
     14 C          21.7480    9.8150   30.9720 C.3     1  UNL1        0.0178
     15 N          20.2010    7.3360   31.2280 N.am    1  UNL1       -0.2995
     16 O          22.0980    6.0840   31.0120 O.2     1  UNL1       -0.2526
     17 C          22.2410   10.6350   29.7710 C.3     1  UNL1       -0.0185
     18 C          19.5940    6.9930   32.5080 C.3     1  UNL1        0.0102
     19 C          18.4750    7.9560   32.8540 C.3     1  UNL1       -0.0495
     20 C          21.7630   15.2690   29.3950 C.ar    1  UNL1        0.0269
     21 C          21.1080   14.8330   30.5850 C.ar    1  UNL1        0.0089
     22 C          21.3790   13.8290   31.5780 C.ar    1  UNL1       -0.0520
     23 C          19.9390   15.6300   30.7310 C.ar    1  UNL1        0.0471
     24 C          20.4810   13.6730   32.6660 C.ar    1  UNL1       -0.0611
     25 C          19.3300   14.4880   32.7800 C.ar    1  UNL1       -0.0598
     26 C          19.0380   15.4810   31.8170 C.ar    1  UNL1       -0.0378
     27 N          19.9040   16.4980   29.6760 N.ar    1  UNL1       -0.3600
     28 C          20.9810   16.2940   28.8760 C.ar    1  UNL1        0.0120
     29 H          25.9790   15.3721   27.2807 H       1  UNL1        0.0846
     30 H          24.6790   10.8461   27.7227 H       1  UNL1        0.1492
     31 H          24.2135   11.0351   30.5934 H       1  UNL1        0.0499
     32 H          23.8321    8.6832   28.6256 H       1  UNL1        0.0298
     33 H          25.3506    9.0784   29.5034 H       1  UNL1        0.0298
     34 H          24.0333    7.2533   30.6103 H       1  UNL1        0.0465
     35 H          24.2438    8.7230   31.6546 H       1  UNL1        0.0465
     36 H          20.6490    9.7733   30.9516 H       1  UNL1        0.0465
     37 H          22.0996   10.3005   31.8943 H       1  UNL1        0.0465
     38 H          19.6149    7.6846   30.4561 H       1  UNL1        0.1502
     39 H          21.8121   10.2183   28.8478 H       1  UNL1        0.0298
     40 H          21.9226   11.6801   29.8994 H       1  UNL1        0.0298
     41 H          19.1861    5.9730   32.4509 H       1  UNL1        0.0460
     42 H          20.3652    7.0563   33.2898 H       1  UNL1        0.0460
     43 H          18.3838    8.0345   33.9474 H       1  UNL1        0.0245
     44 H          18.7006    8.9468   32.4328 H       1  UNL1        0.0245
     45 H          17.5289    7.5853   32.4328 H       1  UNL1        0.0245
     46 H          22.2707   13.1902   31.4955 H       1  UNL1        0.0624
     47 H          20.6825   12.9084   33.4307 H       1  UNL1        0.0618
     48 H          18.6502   14.3464   33.6332 H       1  UNL1        0.0618
     49 H          18.1440   16.1156   31.9064 H       1  UNL1        0.0638
     50 H          19.1699   17.2018   29.5125 H       1  UNL1        0.1654
     51 H          21.2017   16.8550   27.9559 H       1  UNL1        0.0814
@<TRIPOS>BOND
     1     3     2   ar
     2     4     3   ar
     3     5     4   ar
     4     5     1    1
     5     6     5   ar
     6     7     6   ar
     7     7     2   ar
     8     8     2    1
     9     9     8    1
    10    10     9    1
    11    11    10    1
    12    12    11    1
    13    13    12   am
    14    14    12    1
    15    15    13   am
    16    16    13    2
    17    17    14    1
    18    17     9    1
    19    18    15    1
    20    19    18    1
    21    20     4    1
    22    21    20   ar
    23    22    21   ar
    24    23    21   ar
    25    24    22   ar
    26    25    24   ar
    27    26    23   ar
    28    26    25   ar
    29    27    23   ar
    30    28    20   ar
    31    28    27   ar
    32     6    29    1
    33     8    30    1
    34     9    31    1
    35    10    32    1
    36    10    33    1
    37    11    34    1
    38    11    35    1
    39    14    36    1
    40    14    37    1
    41    15    38    1
    42    17    39    1
    43    17    40    1
    44    18    41    1
    45    18    42    1
    46    19    43    1
    47    19    44    1
    48    19    45    1
    49    22    46    1
    50    24    47    1
    51    25    48    1
    52    26    49    1
    53    27    50    1
    54    28    51    1
