BI1
 OpenBabel10052214073D

 55 59  0  0  0  0  0  0  0  0999 V2000
   39.8450   27.4110   29.0830 C   0  0  0  0  0  0  0  0  0  0  0  0
   39.2530   28.6350   29.3870 C   0  0  0  0  0  0  0  0  0  0  0  0
   37.9080   28.8500   29.1000 C   0  0  0  0  0  0  0  0  0  0  0  0
   37.1540   27.8460   28.5050 C   0  0  0  0  0  0  0  0  0  0  0  0
   37.7510   26.6290   28.2030 C   0  0  0  0  0  0  0  0  0  0  0  0
   39.0940   26.4010   28.4900 C   0  0  0  0  0  0  0  0  0  0  0  0
   35.8360   27.7910   28.0740 C   0  0  0  0  0  0  0  0  0  0  0  0
   34.8230   28.7480   28.0590 C   0  0  0  0  0  0  0  0  0  0  0  0
   33.4520   28.5520   28.1880 C   0  0  0  0  0  0  0  0  0  0  0  0
   32.7870   27.3760   28.5360 C   0  0  0  0  0  0  0  0  0  0  0  0
   31.5910   27.1190   28.0120 C   0  0  0  0  0  0  0  0  0  0  0  0
   33.1040   26.3370   29.3950 C   0  0  0  0  0  0  0  0  0  0  0  0
   32.0510   25.4350   29.3580 C   0  0  0  0  0  0  0  0  0  0  0  0
   34.2060   26.0720   30.2040 C   0  0  0  0  0  0  0  0  0  0  0  0
   34.2460   24.9050   30.9610 C   0  0  0  0  0  0  0  0  0  0  0  0
   33.1860   24.0020   30.9180 C   0  0  0  0  0  0  0  0  0  0  0  0
   32.0810   24.2670   30.1150 C   0  0  0  0  0  0  0  0  0  0  0  0
   35.0230   30.0960   27.7720 C   0  0  0  0  0  0  0  0  0  0  0  0
   32.8250   29.7740   27.9680 C   0  0  0  0  0  0  0  0  0  0  0  0
   35.6420   26.5880   27.5330 C   0  0  0  0  0  0  0  0  0  0  0  0
   36.7940   25.9130   27.6160 N   0  0  0  0  0  0  0  0  0  0  0  0
   31.1630   25.9550   28.5100 N   0  0  0  0  0  0  0  0  0  0  0  0
   33.8090   30.6420   27.7330 N   0  0  0  0  0  0  0  0  0  0  0  0
   31.6190   30.0060   27.9590 O   0  0  0  0  0  0  0  0  0  0  0  0
   36.0870   30.6710   27.5590 O   0  0  0  0  0  0  0  0  0  0  0  0
   37.0210   24.5780   27.0390 C   0  0  0  0  0  0  0  0  0  0  0  0
   37.6630   23.5830   28.0130 C   0  0  0  0  0  0  0  0  0  0  0  0
   38.8910   22.8720   27.4340 C   0  0  0  0  0  0  0  0  0  0  0  0
   40.0060   22.7150   28.3870 N   0  0  0  0  0  0  0  0  0  0  0  0
   39.6350   22.5700   29.8010 C   0  0  0  0  0  0  0  0  0  0  0  0
   41.3110   23.3220   28.0850 C   0  0  0  0  0  0  0  0  0  0  0  0
   40.9077   27.2429   29.3121 H   0  0  0  0  0  0  0  0  0  0  0  0
   39.8492   29.4325   29.8544 H   0  0  0  0  0  0  0  0  0  0  0  0
   37.4416   29.8157   29.3445 H   0  0  0  0  0  0  0  0  0  0  0  0
   39.5567   25.4322   28.2504 H   0  0  0  0  0  0  0  0  0  0  0  0
   31.0496   27.7534   27.2947 H   0  0  0  0  0  0  0  0  0  0  0  0
   35.0435   26.7840   30.2446 H   0  0  0  0  0  0  0  0  0  0  0  0
   35.1189   24.6945   31.5965 H   0  0  0  0  0  0  0  0  0  0  0  0
   33.2226   23.0808   31.5180 H   0  0  0  0  0  0  0  0  0  0  0  0
   31.2389   23.5602   30.0786 H   0  0  0  0  0  0  0  0  0  0  0  0
   34.7029   26.2170   27.0966 H   0  0  0  0  0  0  0  0  0  0  0  0
   30.2628   25.5159   28.2696 H   0  0  0  0  0  0  0  0  0  0  0  0
   33.6458   31.6404   27.5396 H   0  0  0  0  0  0  0  0  0  0  0  0
   36.0516   24.1706   26.7160 H   0  0  0  0  0  0  0  0  0  0  0  0
   37.7240   24.7061   26.2027 H   0  0  0  0  0  0  0  0  0  0  0  0
   37.9700   24.1288   28.9173 H   0  0  0  0  0  0  0  0  0  0  0  0
   36.9116   22.8094   28.2298 H   0  0  0  0  0  0  0  0  0  0  0  0
   38.5827   21.8715   27.0964 H   0  0  0  0  0  0  0  0  0  0  0  0
   39.2636   23.5034   26.6140 H   0  0  0  0  0  0  0  0  0  0  0  0
   40.4722   22.8972   30.4351 H   0  0  0  0  0  0  0  0  0  0  0  0
   38.7506   23.1886   30.0133 H   0  0  0  0  0  0  0  0  0  0  0  0
   39.4045   21.5156   30.0133 H   0  0  0  0  0  0  0  0  0  0  0  0
   41.8295   23.5632   29.0247 H   0  0  0  0  0  0  0  0  0  0  0  0
   41.9186   22.6141   27.5022 H   0  0  0  0  0  0  0  0  0  0  0  0
   41.1610   24.2428   27.5022 H   0  0  0  0  0  0  0  0  0  0  0  0
  1 32  1  0  0  0  0
  2  1  2  0  0  0  0
  2 33  1  0  0  0  0
  3  2  1  0  0  0  0
  3 34  1  0  0  0  0
  4  3  2  0  0  0  0
  5  4  1  0  0  0  0
  6  5  2  0  0  0  0
  6  1  1  0  0  0  0
  6 35  1  0  0  0  0
  7  4  1  0  0  0  0
  8  7  1  0  0  0  0
  9  8  2  0  0  0  0
 10  9  1  0  0  0  0
 11 10  2  0  0  0  0
 11 36  1  0  0  0  0
 12 10  1  0  0  0  0
 13 12  2  0  0  0  0
 14 12  1  0  0  0  0
 14 37  1  0  0  0  0
 15 14  2  0  0  0  0
 15 38  1  0  0  0  0
 16 15  1  0  0  0  0
 16 39  1  0  0  0  0
 17 13  1  0  0  0  0
 17 16  2  0  0  0  0
 17 40  1  0  0  0  0
 18  8  1  0  0  0  0
 19  9  1  0  0  0  0
 20  7  2  0  0  0  0
 20 41  1  0  0  0  0
 21 20  1  0  0  0  0
 21  5  1  0  0  0  0
 22 13  1  0  0  0  0
 22 11  1  0  0  0  0
 22 42  1  0  0  0  0
 23 19  1  0  0  0  0
 23 18  1  0  0  0  0
 23 43  1  0  0  0  0
 24 19  2  0  0  0  0
 25 18  2  0  0  0  0
 26 21  1  0  0  0  0
 26 44  1  0  0  0  0
 26 45  1  0  0  0  0
 27 26  1  0  0  0  0
 27 46  1  0  0  0  0
 27 47  1  0  0  0  0
 28 27  1  0  0  0  0
 28 48  1  0  0  0  0
 28 49  1  0  0  0  0
 29 28  1  0  0  0  0
 30 29  1  0  0  0  0
 30 50  1  0  0  0  0
 30 51  1  0  0  0  0
 30 52  1  0  0  0  0
 31 29  1  0  0  0  0
 31 53  1  0  0  0  0
 31 54  1  0  0  0  0
 31 55  1  0  0  0  0
M  END
$$$$
