@<TRIPOS>MOLECULE
BI1
 55 59 0 0 0
SMALL
GASTEIGER

@<TRIPOS>ATOM
      1 C          39.8450   27.4110   29.0830 C.ar    1  UNL1       -0.0598
      2 C          39.2530   28.6350   29.3870 C.ar    1  UNL1       -0.0611
      3 C          37.9080   28.8500   29.1000 C.ar    1  UNL1       -0.0520
      4 C          37.1540   27.8460   28.5050 C.ar    1  UNL1        0.0077
      5 C          37.7510   26.6290   28.2030 C.ar    1  UNL1        0.0497
      6 C          39.0940   26.4010   28.4900 C.ar    1  UNL1       -0.0376
      7 C          35.8360   27.7910   28.0740 C.ar    1  UNL1        0.0131
      8 C          34.8230   28.7480   28.0590 C.2     1  UNL1        0.0590
      9 C          33.4520   28.5520   28.1880 C.2     1  UNL1        0.0589
     10 C          32.7870   27.3760   28.5360 C.ar    1  UNL1        0.0129
     11 C          31.5910   27.1190   28.0120 C.ar    1  UNL1        0.0106
     12 C          33.1040   26.3370   29.3950 C.ar    1  UNL1        0.0075
     13 C          32.0510   25.4350   29.3580 C.ar    1  UNL1        0.0471
     14 C          34.2060   26.0720   30.2040 C.ar    1  UNL1       -0.0520
     15 C          34.2460   24.9050   30.9610 C.ar    1  UNL1       -0.0611
     16 C          33.1860   24.0020   30.9180 C.ar    1  UNL1       -0.0598
     17 C          32.0810   24.2670   30.1150 C.ar    1  UNL1       -0.0378
     18 C          35.0230   30.0960   27.7720 C.2     1  UNL1        0.2519
     19 C          32.8250   29.7740   27.9680 C.2     1  UNL1        0.2519
     20 C          35.6420   26.5880   27.5330 C.ar    1  UNL1        0.0136
     21 N          36.7940   25.9130   27.6160 N.ar    1  UNL1       -0.3460
     22 N          31.1630   25.9550   28.5100 N.ar    1  UNL1       -0.3600
     23 N          33.8090   30.6420   27.7330 N.am    1  UNL1       -0.2483
     24 O          31.6190   30.0060   27.9590 O.2     1  UNL1       -0.2697
     25 O          36.0870   30.6710   27.5590 O.2     1  UNL1       -0.2697
     26 C          37.0210   24.5780   27.0390 C.3     1  UNL1        0.0245
     27 C          37.6630   23.5830   28.0130 C.3     1  UNL1       -0.0222
     28 C          38.8910   22.8720   27.4340 C.3     1  UNL1       -0.0001
     29 N          40.0060   22.7150   28.3870 N.3     1  UNL1       -0.3083
     30 C          39.6350   22.5700   29.8010 C.3     1  UNL1       -0.0130
     31 C          41.3110   23.3220   28.0850 C.3     1  UNL1       -0.0130
     32 H          40.9077   27.2429   29.3121 H       1  UNL1        0.0618
     33 H          39.8492   29.4325   29.8544 H       1  UNL1        0.0618
     34 H          37.4416   29.8157   29.3445 H       1  UNL1        0.0624
     35 H          39.5567   25.4322   28.2504 H       1  UNL1        0.0638
     36 H          31.0496   27.7534   27.2947 H       1  UNL1        0.0813
     37 H          35.0435   26.7840   30.2446 H       1  UNL1        0.0624
     38 H          35.1189   24.6945   31.5965 H       1  UNL1        0.0618
     39 H          33.2226   23.0808   31.5180 H       1  UNL1        0.0618
     40 H          31.2389   23.5602   30.0786 H       1  UNL1        0.0638
     41 H          34.7029   26.2170   27.0966 H       1  UNL1        0.0815
     42 H          30.2628   25.5159   28.2696 H       1  UNL1        0.1654
     43 H          33.6458   31.6404   27.5396 H       1  UNL1        0.1581
     44 H          36.0516   24.1706   26.7160 H       1  UNL1        0.0492
     45 H          37.7240   24.7061   26.2027 H       1  UNL1        0.0492
     46 H          37.9700   24.1288   28.9173 H       1  UNL1        0.0295
     47 H          36.9116   22.8094   28.2298 H       1  UNL1        0.0295
     48 H          38.5827   21.8715   27.0964 H       1  UNL1        0.0427
     49 H          39.2636   23.5034   26.6140 H       1  UNL1        0.0427
     50 H          40.4722   22.8972   30.4351 H       1  UNL1        0.0391
     51 H          38.7506   23.1886   30.0133 H       1  UNL1        0.0391
     52 H          39.4045   21.5156   30.0133 H       1  UNL1        0.0391
     53 H          41.8295   23.5632   29.0247 H       1  UNL1        0.0391
     54 H          41.9186   22.6141   27.5022 H       1  UNL1        0.0391
     55 H          41.1610   24.2428   27.5022 H       1  UNL1        0.0391
@<TRIPOS>BOND
     1     2     1   ar
     2     3     2   ar
     3     4     3   ar
     4     5     4   ar
     5     6     5   ar
     6     6     1   ar
     7     7     4   ar
     8     8     7    1
     9     9     8    2
    10    10     9    1
    11    11    10   ar
    12    12    10   ar
    13    13    12   ar
    14    14    12   ar
    15    15    14   ar
    16    16    15   ar
    17    17    13   ar
    18    17    16   ar
    19    18     8    1
    20    19     9    1
    21    20     7   ar
    22    21    20   ar
    23    21     5   ar
    24    22    13   ar
    25    22    11   ar
    26    23    19   am
    27    23    18   am
    28    24    19    2
    29    25    18    2
    30    26    21    1
    31    27    26    1
    32    28    27    1
    33    29    28    1
    34    30    29    1
    35    31    29    1
    36     1    32    1
    37     2    33    1
    38     3    34    1
    39     6    35    1
    40    11    36    1
    41    14    37    1
    42    15    38    1
    43    16    39    1
    44    17    40    1
    45    20    41    1
    46    22    42    1
    47    23    43    1
    48    26    44    1
    49    26    45    1
    50    27    46    1
    51    27    47    1
    52    28    48    1
    53    28    49    1
    54    30    50    1
    55    30    51    1
    56    30    52    1
    57    31    53    1
    58    31    54    1
    59    31    55    1
