@<TRIPOS>MOLECULE
041
 30 32 0 0 0
SMALL
GASTEIGER

@<TRIPOS>ATOM
      1 C          27.9160   36.4550   43.3110 C.2     1  UNL1       -0.0980
      2 C          28.3770   36.1110   42.0800 C.2     1  UNL1       -0.0580
      3 C          32.5050   36.2400   38.2800 C.ar    1  UNL1       -0.0459
      4 C          27.6880   36.3810   40.7780 C.ar    1  UNL1        0.0224
      5 C          26.2710   36.5830   40.7290 C.ar    1  UNL1       -0.0094
      6 C          33.8140   36.1380   37.7240 C.ar    1  UNL1       -0.0166
      7 C          31.5050   36.3930   36.0060 C.ar    1  UNL1       -0.0106
      8 C          31.3500   36.3680   37.4280 C.ar    1  UNL1        0.0399
      9 C          26.3860   36.9010   38.2610 C.ar    1  UNL1        0.0090
     10 C          27.7960   36.7020   38.2920 C.ar    1  UNL1        0.1139
     11 C          28.4280   36.4430   39.5710 C.ar    1  UNL1        0.1630
     12 C          25.6230   36.8410   39.4740 C.ar    1  UNL1        0.1197
     13 C          33.9590   36.1620   36.2960 C.ar    1  UNL1        0.1519
     14 C          32.8040   36.2890   35.4590 C.ar    1  UNL1        0.1653
     15 C          29.9790   36.4490   38.0070 C.ar    1  UNL1        0.2285
     16 O          35.2200   36.0570   35.7580 O.3     1  UNL1       -0.5039
     17 O          24.2590   37.0400   39.4540 O.3     1  UNL1       -0.5067
     18 F          32.9960   36.3030   34.1310 F       1  UNL1       -0.2016
     19 N          28.8070   36.6960   37.3420 N.ar    1  UNL1       -0.2088
     20 O          29.7500   36.2960   39.3350 O.2     1  UNL1       -0.4347
     21 H          28.4676   36.2232   44.1519 H       1  UNL1        0.0535
     22 H          27.0143   36.9481   43.4051 H       1  UNL1        0.0535
     23 H          29.2835   35.6195   42.0385 H       1  UNL1        0.0619
     24 H          32.3833   36.2219   39.3046 H       1  UNL1        0.0626
     25 H          25.7147   36.5430   41.5973 H       1  UNL1        0.0661
     26 H          34.6404   36.0487   38.3357 H       1  UNL1        0.0655
     27 H          30.6822   36.4854   35.3900 H       1  UNL1        0.0655
     28 H          25.9122   37.0888   37.3636 H       1  UNL1        0.0676
     29 H          35.9643   35.9746   36.3212 H       1  UNL1        0.2923
     30 H          23.8221   37.2094   38.6426 H       1  UNL1        0.2921
@<TRIPOS>BOND
     1     2     1    2
     2     4     2    1
     3     5     4   ar
     4     6     3   ar
     5     8     7   ar
     6     8     3   ar
     7    10     9   ar
     8    11    10   ar
     9    11     4   ar
    10    12     9   ar
    11    12     5   ar
    12    13     6   ar
    13    14     7   ar
    14    14    13   ar
    15    15     8    1
    16    16    13    1
    17    17    12    1
    18    18    14    1
    19    19    15   ar
    20    19    10   ar
    21    20    15   ar
    22    20    11   ar
    23     1    21    1
    24     1    22    1
    25     2    23    1
    26     3    24    1
    27     5    25    1
    28     6    26    1
    29     7    27    1
    30     9    28    1
    31    16    29    1
    32    17    30    1
