041
 OpenBabel04132214343D

 30 32  0  0  0  0  0  0  0  0999 V2000
   27.9160   36.4550   43.3110 C   0  0  0  0  0  0  0  0  0  0  0  0
   28.3770   36.1110   42.0800 C   0  0  0  0  0  0  0  0  0  0  0  0
   32.5050   36.2400   38.2800 C   0  0  0  0  0  0  0  0  0  0  0  0
   27.6880   36.3810   40.7780 C   0  0  0  0  0  0  0  0  0  0  0  0
   26.2710   36.5830   40.7290 C   0  0  0  0  0  0  0  0  0  0  0  0
   33.8140   36.1380   37.7240 C   0  0  0  0  0  0  0  0  0  0  0  0
   31.5050   36.3930   36.0060 C   0  0  0  0  0  0  0  0  0  0  0  0
   31.3500   36.3680   37.4280 C   0  0  0  0  0  0  0  0  0  0  0  0
   26.3860   36.9010   38.2610 C   0  0  0  0  0  0  0  0  0  0  0  0
   27.7960   36.7020   38.2920 C   0  0  0  0  0  0  0  0  0  0  0  0
   28.4280   36.4430   39.5710 C   0  0  0  0  0  0  0  0  0  0  0  0
   25.6230   36.8410   39.4740 C   0  0  0  0  0  0  0  0  0  0  0  0
   33.9590   36.1620   36.2960 C   0  0  0  0  0  0  0  0  0  0  0  0
   32.8040   36.2890   35.4590 C   0  0  0  0  0  0  0  0  0  0  0  0
   29.9790   36.4490   38.0070 C   0  0  0  0  0  0  0  0  0  0  0  0
   35.2200   36.0570   35.7580 O   0  0  0  0  0  0  0  0  0  0  0  0
   24.2590   37.0400   39.4540 O   0  0  0  0  0  0  0  0  0  0  0  0
   32.9960   36.3030   34.1310 F   0  0  0  0  0  0  0  0  0  0  0  0
   28.8070   36.6960   37.3420 N   0  0  0  0  0  0  0  0  0  0  0  0
   29.7500   36.2960   39.3350 O   0  0  0  0  0  0  0  0  0  0  0  0
   28.4676   36.2232   44.1519 H   0  0  0  0  0  0  0  0  0  0  0  0
   27.0143   36.9481   43.4051 H   0  0  0  0  0  0  0  0  0  0  0  0
   29.2835   35.6195   42.0385 H   0  0  0  0  0  0  0  0  0  0  0  0
   32.3833   36.2219   39.3046 H   0  0  0  0  0  0  0  0  0  0  0  0
   25.7147   36.5430   41.5973 H   0  0  0  0  0  0  0  0  0  0  0  0
   34.6404   36.0487   38.3357 H   0  0  0  0  0  0  0  0  0  0  0  0
   30.6822   36.4854   35.3900 H   0  0  0  0  0  0  0  0  0  0  0  0
   25.9122   37.0888   37.3636 H   0  0  0  0  0  0  0  0  0  0  0  0
   35.9643   35.9746   36.3212 H   0  0  0  0  0  0  0  0  0  0  0  0
   23.8221   37.2094   38.6426 H   0  0  0  0  0  0  0  0  0  0  0  0
  1 21  1  0  0  0  0
  1 22  1  0  0  0  0
  2  1  2  0  0  0  0
  2 23  1  0  0  0  0
  3 24  1  0  0  0  0
  4  2  1  0  0  0  0
  5  4  2  0  0  0  0
  5 25  1  0  0  0  0
  6  3  2  0  0  0  0
  6 26  1  0  0  0  0
  7 27  1  0  0  0  0
  8  7  2  0  0  0  0
  8  3  1  0  0  0  0
  9 28  1  0  0  0  0
 10  9  1  0  0  0  0
 11 10  2  0  0  0  0
 11  4  1  0  0  0  0
 12  9  2  0  0  0  0
 12  5  1  0  0  0  0
 13  6  1  0  0  0  0
 14  7  1  0  0  0  0
 14 13  2  0  0  0  0
 15  8  1  0  0  0  0
 16 13  1  0  0  0  0
 16 29  1  0  0  0  0
 17 12  1  0  0  0  0
 17 30  1  0  0  0  0
 18 14  1  0  0  0  0
 19 15  2  0  0  0  0
 19 10  1  0  0  0  0
 20 15  1  0  0  0  0
 20 11  1  0  0  0  0
M  END
$$$$
