@<TRIPOS>MOLECULE
GWB
 37 39 0 0 0
SMALL
GASTEIGER

@<TRIPOS>ATOM
      1 N           6.0280  -39.4700   15.6050 N.ar    1  UNL1       -0.3217
      2 C           5.2060  -38.9100   16.5570 C.ar    1  UNL1        0.0529
      3 O           8.1050  -39.8910   14.7770 O.2     1  UNL1       -0.2675
      4 C           5.7840  -38.1840   17.6670 C.ar    1  UNL1        0.0448
      5 C           7.1850  -38.0330   17.7590 C.ar    1  UNL1        0.1587
      6 C           8.0330  -38.5850   16.7960 C.ar    1  UNL1        0.0632
      7 C           7.4250  -39.3540   15.6590 C.ar    1  UNL1        0.2562
      8 C           4.9080  -37.5780   18.6110 C.ar    1  UNL1       -0.0138
      9 C           3.5040  -37.6700   18.4590 C.ar    1  UNL1        0.1242
     10 C           2.9420  -38.3800   17.3600 C.ar    1  UNL1       -0.0245
     11 C           3.7930  -39.0030   16.4120 C.ar    1  UNL1       -0.0349
     12 F           2.6840  -37.0530   19.3770 F       1  UNL1       -0.2055
     13 O           7.7570  -37.2820   18.8030 O.3     1  UNL1       -0.4053
     14 C           8.0170  -35.8920   18.5240 C.1     1  UNL1        0.1174
     15 C           8.2370  -34.7910   18.2770 C.1     1  UNL1       -0.0558
     16 C           8.5630  -33.1790   17.9200 C.3     1  UNL1        0.0239
     17 C           8.1260  -32.4540   19.1230 C.3     1  UNL1       -0.0381
     18 C           9.5840  -32.7740   18.8940 C.3     1  UNL1       -0.0381
     19 C           9.5520  -38.2970   16.9010 C.3     1  UNL1       -0.0128
     20 C          10.1210  -37.4400   15.7630 C.3     1  UNL1       -0.0584
     21 C          10.3890  -39.5550   17.1520 C.3     1  UNL1       -0.0584
     22 H           5.6024  -39.9923   14.8260 H       1  UNL1        0.1689
     23 H           5.3272  -37.0317   19.4688 H       1  UNL1        0.0654
     24 H           1.8498  -38.4451   17.2466 H       1  UNL1        0.0647
     25 H           3.3617  -39.5575   15.5655 H       1  UNL1        0.0639
     26 H           8.4318  -33.0578   16.8346 H       1  UNL1        0.0434
     27 H           7.7687  -31.4167   19.0440 H       1  UNL1        0.0277
     28 H           7.4003  -32.6384   19.9288 H       1  UNL1        0.0277
     29 H          10.0872  -33.5309   19.5136 H       1  UNL1        0.0277
     30 H          10.5162  -32.1914   18.8542 H       1  UNL1        0.0277
     31 H           9.6397  -37.6715   17.8016 H       1  UNL1        0.0346
     32 H          10.6826  -36.5942   16.1865 H       1  UNL1        0.0235
     33 H          10.7925  -38.0524   15.1433 H       1  UNL1        0.0235
     34 H           9.2960  -37.0588   15.1433 H       1  UNL1        0.0235
     35 H          10.4952  -39.7147   18.2352 H       1  UNL1        0.0235
     36 H           9.8887  -40.4244   16.7005 H       1  UNL1        0.0235
     37 H          11.3842  -39.4294   16.7005 H       1  UNL1        0.0235
@<TRIPOS>BOND
     1     2     1   ar
     2     4     2   ar
     3     5     4   ar
     4     6     5   ar
     5     7     3    2
     6     7     1   ar
     7     7     6   ar
     8     8     4   ar
     9     9     8   ar
    10    10     9   ar
    11    11    10   ar
    12    11     2   ar
    13    12     9    1
    14    13     5    1
    15    14    13    1
    16    15    14    3
    17    16    15    1
    18    17    16    1
    19    18    16    1
    20    18    17    1
    21    19     6    1
    22    20    19    1
    23    21    19    1
    24     1    22    1
    25     8    23    1
    26    10    24    1
    27    11    25    1
    28    16    26    1
    29    17    27    1
    30    17    28    1
    31    18    29    1
    32    18    30    1
    33    19    31    1
    34    20    32    1
    35    20    33    1
    36    20    34    1
    37    21    35    1
    38    21    36    1
    39    21    37    1
