@<TRIPOS>MOLECULE
3S1
 32 34 0 0 0
SMALL
GASTEIGER

@<TRIPOS>ATOM
      1 N          30.6760   20.9700   31.5980 N.ar    1  UNL1       -0.3286
      2 O          32.9690   20.6710   31.4530 O.2     1  UNL1       -0.2672
      3 C          32.2830   25.3560   29.5170 C.ar    1  UNL1       -0.0170
      4 C          33.4590   24.5550   29.7260 C.ar    1  UNL1       -0.0533
      5 C          33.3770   23.2610   30.2910 C.ar    1  UNL1       -0.0483
      6 C          32.1060   22.7380   30.6620 C.ar    1  UNL1        0.0465
      7 C          31.9820   21.3710   31.2680 C.ar    1  UNL1        0.2565
      8 C          29.5340   21.7310   31.4060 C.ar    1  UNL1        0.0055
      9 C          29.5860   22.9670   30.8640 C.ar    1  UNL1       -0.0378
     10 C          30.9090   23.5160   30.4700 C.ar    1  UNL1       -0.0108
     11 C          31.0150   24.8120   29.8980 C.ar    1  UNL1       -0.0461
     12 C          32.3510   26.7250   28.9220 C.ar    1  UNL1       -0.0125
     13 C          33.5310   27.5910   28.9460 C.ar    1  UNL1       -0.0145
     14 C          33.4510   28.8870   28.3330 C.ar    1  UNL1       -0.0558
     15 C          32.2610   29.3360   27.7040 C.ar    1  UNL1       -0.0614
     16 C          31.1150   28.5090   27.6700 C.ar    1  UNL1       -0.0612
     17 C          31.1580   27.2250   28.2680 C.ar    1  UNL1       -0.0537
     18 C          34.8640   27.2280   29.5770 C.3     1  UNL1        0.0698
     19 O          35.8740   28.1020   29.0990 O.3     1  UNL1       -0.3904
     20 H          30.5584   20.0360   32.0159 H       1  UNL1        0.1683
     21 H          34.4424   24.9569   29.4406 H       1  UNL1        0.0624
     22 H          34.2881   22.6635   30.4425 H       1  UNL1        0.0625
     23 H          28.5590   21.3174   31.7030 H       1  UNL1        0.0808
     24 H          28.6679   23.5549   30.7174 H       1  UNL1        0.0638
     25 H          30.1043   25.4096   29.7448 H       1  UNL1        0.0630
     26 H          34.3315   29.5461   28.3514 H       1  UNL1        0.0621
     27 H          32.2300   30.3330   27.2403 H       1  UNL1        0.0618
     28 H          30.1942   28.8605   27.1816 H       1  UNL1        0.0618
     29 H          30.2606   26.5897   28.2349 H       1  UNL1        0.0624
     30 H          34.7880   27.3206   30.6705 H       1  UNL1        0.0607
     31 H          35.1228   26.1926   29.3106 H       1  UNL1        0.0607
     32 H          36.3468   28.5111   29.8666 H       1  UNL1        0.2098
@<TRIPOS>BOND
     1     4     3   ar
     2     5     4   ar
     3     6     5   ar
     4     7     1   ar
     5     7     6   ar
     6     7     2    2
     7     8     1   ar
     8     9     8   ar
     9    10     9   ar
    10    10     6   ar
    11    11    10   ar
    12    11     3   ar
    13    12     3    1
    14    13    12   ar
    15    14    13   ar
    16    15    14   ar
    17    16    15   ar
    18    17    12   ar
    19    17    16   ar
    20    18    13    1
    21    19    18    1
    22     1    20    1
    23     4    21    1
    24     5    22    1
    25     8    23    1
    26     9    24    1
    27    11    25    1
    28    14    26    1
    29    15    27    1
    30    16    28    1
    31    17    29    1
    32    18    30    1
    33    18    31    1
    34    19    32    1
