3S1
 OpenBabel10052214073D

 32 34  0  0  0  0  0  0  0  0999 V2000
   30.6760   20.9700   31.5980 N   0  0  0  0  0  0  0  0  0  0  0  0
   32.9690   20.6710   31.4530 O   0  0  0  0  0  0  0  0  0  0  0  0
   32.2830   25.3560   29.5170 C   0  0  0  0  0  0  0  0  0  0  0  0
   33.4590   24.5550   29.7260 C   0  0  0  0  0  0  0  0  0  0  0  0
   33.3770   23.2610   30.2910 C   0  0  0  0  0  0  0  0  0  0  0  0
   32.1060   22.7380   30.6620 C   0  0  0  0  0  0  0  0  0  0  0  0
   31.9820   21.3710   31.2680 C   0  0  0  0  0  0  0  0  0  0  0  0
   29.5340   21.7310   31.4060 C   0  0  0  0  0  0  0  0  0  0  0  0
   29.5860   22.9670   30.8640 C   0  0  0  0  0  0  0  0  0  0  0  0
   30.9090   23.5160   30.4700 C   0  0  0  0  0  0  0  0  0  0  0  0
   31.0150   24.8120   29.8980 C   0  0  0  0  0  0  0  0  0  0  0  0
   32.3510   26.7250   28.9220 C   0  0  0  0  0  0  0  0  0  0  0  0
   33.5310   27.5910   28.9460 C   0  0  0  0  0  0  0  0  0  0  0  0
   33.4510   28.8870   28.3330 C   0  0  0  0  0  0  0  0  0  0  0  0
   32.2610   29.3360   27.7040 C   0  0  0  0  0  0  0  0  0  0  0  0
   31.1150   28.5090   27.6700 C   0  0  0  0  0  0  0  0  0  0  0  0
   31.1580   27.2250   28.2680 C   0  0  0  0  0  0  0  0  0  0  0  0
   34.8640   27.2280   29.5770 C   0  0  0  0  0  0  0  0  0  0  0  0
   35.8740   28.1020   29.0990 O   0  0  0  0  0  0  0  0  0  0  0  0
   30.5584   20.0360   32.0159 H   0  0  0  0  0  0  0  0  0  0  0  0
   34.4424   24.9569   29.4406 H   0  0  0  0  0  0  0  0  0  0  0  0
   34.2881   22.6635   30.4425 H   0  0  0  0  0  0  0  0  0  0  0  0
   28.5590   21.3174   31.7030 H   0  0  0  0  0  0  0  0  0  0  0  0
   28.6679   23.5549   30.7174 H   0  0  0  0  0  0  0  0  0  0  0  0
   30.1043   25.4096   29.7448 H   0  0  0  0  0  0  0  0  0  0  0  0
   34.3315   29.5461   28.3514 H   0  0  0  0  0  0  0  0  0  0  0  0
   32.2300   30.3330   27.2403 H   0  0  0  0  0  0  0  0  0  0  0  0
   30.1942   28.8605   27.1816 H   0  0  0  0  0  0  0  0  0  0  0  0
   30.2606   26.5897   28.2349 H   0  0  0  0  0  0  0  0  0  0  0  0
   34.7880   27.3206   30.6705 H   0  0  0  0  0  0  0  0  0  0  0  0
   35.1228   26.1926   29.3106 H   0  0  0  0  0  0  0  0  0  0  0  0
   36.3468   28.5111   29.8666 H   0  0  0  0  0  0  0  0  0  0  0  0
  1 20  1  0  0  0  0
  4  3  2  0  0  0  0
  4 21  1  0  0  0  0
  5  4  1  0  0  0  0
  5 22  1  0  0  0  0
  6  5  2  0  0  0  0
  7  1  1  0  0  0  0
  7  6  1  0  0  0  0
  7  2  2  0  0  0  0
  8  1  1  0  0  0  0
  8 23  1  0  0  0  0
  9  8  2  0  0  0  0
  9 24  1  0  0  0  0
 10  9  1  0  0  0  0
 10  6  1  0  0  0  0
 11 10  2  0  0  0  0
 11  3  1  0  0  0  0
 11 25  1  0  0  0  0
 12  3  1  0  0  0  0
 13 12  2  0  0  0  0
 14 13  1  0  0  0  0
 14 26  1  0  0  0  0
 15 14  2  0  0  0  0
 15 27  1  0  0  0  0
 16 15  1  0  0  0  0
 16 28  1  0  0  0  0
 17 12  1  0  0  0  0
 17 16  2  0  0  0  0
 17 29  1  0  0  0  0
 18 13  1  0  0  0  0
 18 30  1  0  0  0  0
 18 31  1  0  0  0  0
 19 18  1  0  0  0  0
 19 32  1  0  0  0  0
M  END
$$$$
