@<TRIPOS>MOLECULE
2DD
 43 45 0 0 0
SMALL
GASTEIGER

@<TRIPOS>ATOM
      1 N           7.7530    6.0370   24.2620 N.ar    1  UNL1       -0.1810
      2 N           7.5010    5.8570   22.9860 N.ar    1  UNL1       -0.2761
      3 C           6.1680    5.8260   22.7950 C.ar    1  UNL1        0.0814
      4 C           5.5560    6.0160   24.0370 C.ar    1  UNL1        0.0817
      5 C           6.5960    6.1450   24.9400 C.ar    1  UNL1        0.0619
      6 C           4.0730    6.0910   24.3760 C.2     1  UNL1        0.2479
      7 N           3.6500    6.3130   25.6280 N.am    1  UNL1       -0.3071
      8 C           2.3290    6.2220   25.9500 C.3     1  UNL1        0.0371
      9 O           3.2370    5.9400   23.4740 O.2     1  UNL1       -0.2701
     10 C           1.5530    7.5310   25.8350 C.ar    1  UNL1       -0.0302
     11 C           0.1910    7.5640   25.5380 C.ar    1  UNL1       -0.0552
     12 C          -0.4790    8.7930   25.4670 C.ar    1  UNL1       -0.0351
     13 C           0.2000    9.9820   25.7460 C.ar    1  UNL1        0.1050
     14 C           1.5530    9.9430   26.0570 C.ar    1  UNL1       -0.0351
     15 C           2.2160    8.7230   26.1230 C.ar    1  UNL1       -0.0552
     16 S          -0.6350   11.5300   25.6710 S.O2    1  UNL1        0.0559
     17 N          -0.5520   12.1070   24.1990 N.3     1  UNL1       -0.2035
     18 O          -0.0690   12.4350   26.6210 O.2     1  UNL1       -0.1533
     19 O          -2.0290   11.3330   26.0030 O.2     1  UNL1       -0.1533
     20 C           5.4750    5.6290   21.4840 C.ar    1  UNL1        0.0435
     21 C           5.1360    4.3500   21.0430 C.ar    1  UNL1        0.1296
     22 C           4.5560    4.1820   19.7840 C.ar    1  UNL1        0.0234
     23 O           5.4810    3.2770   21.7620 O.3     1  UNL1       -0.5060
     24 C           4.2070    5.3000   19.0300 C.ar    1  UNL1        0.1386
     25 C           4.5150    6.5760   19.4980 C.ar    1  UNL1        0.0831
     26 O           3.6710    5.1540   17.8150 O.3     1  UNL1       -0.5052
     27 CL          4.0870    7.9920   18.5410 Cl      1  UNL1       -0.0797
     28 C           5.1210    6.7410   20.7350 C.ar    1  UNL1       -0.0271
     29 H           8.2113    5.7554   22.2470 H       1  UNL1        0.1889
     30 H           6.4947    6.3075   26.0232 H       1  UNL1        0.0856
     31 H           4.3342    6.5563   26.3585 H       1  UNL1        0.1493
     32 H           1.8623    5.4868   25.2779 H       1  UNL1        0.0512
     33 H           2.2869    5.9279   27.0091 H       1  UNL1        0.0512
     34 H          -0.3568    6.6269   25.3597 H       1  UNL1        0.0621
     35 H          -1.5433    8.8217   25.1906 H       1  UNL1        0.0637
     36 H           2.0999   10.8775   26.2511 H       1  UNL1        0.0637
     37 H           3.2786    8.6978   26.4064 H       1  UNL1        0.0621
     38 H          -0.4054   13.1258   24.2373 H       1  UNL1        0.1442
     39 H           0.2341   11.6655   23.7010 H       1  UNL1        0.1442
     40 H           4.3755    3.1712   19.3894 H       1  UNL1        0.0691
     41 H           5.2387    2.3706   21.4460 H       1  UNL1        0.2922
     42 H           3.4248    5.9521   17.2834 H       1  UNL1        0.2922
     43 H           5.3202    7.7517   21.1208 H       1  UNL1        0.0641
@<TRIPOS>BOND
     1     2     1   ar
     2     3     2   ar
     3     4     3   ar
     4     5     4   ar
     5     5     1   ar
     6     6     4    1
     7     7     6   am
     8     8     7    1
     9     9     6    2
    10    10     8    1
    11    11    10   ar
    12    12    11   ar
    13    13    12   ar
    14    14    13   ar
    15    15    14   ar
    16    15    10   ar
    17    16    13    1
    18    17    16    1
    19    18    16    2
    20    19    16    2
    21    20     3    1
    22    21    20   ar
    23    22    21   ar
    24    23    21    1
    25    24    22   ar
    26    25    24   ar
    27    26    24    1
    28    27    25    1
    29    28    25   ar
    30    28    20   ar
    31     2    29    1
    32     5    30    1
    33     7    31    1
    34     8    32    1
    35     8    33    1
    36    11    34    1
    37    12    35    1
    38    14    36    1
    39    15    37    1
    40    17    38    1
    41    17    39    1
    42    22    40    1
    43    23    41    1
    44    26    42    1
    45    28    43    1
