2DD
 OpenBabel09092213013D

 43 45  0  0  0  0  0  0  0  0999 V2000
    7.7530    6.0370   24.2620 N   0  0  0  0  0  0  0  0  0  0  0  0
    7.5010    5.8570   22.9860 N   0  0  0  0  0  0  0  0  0  0  0  0
    6.1680    5.8260   22.7950 C   0  0  0  0  0  0  0  0  0  0  0  0
    5.5560    6.0160   24.0370 C   0  0  0  0  0  0  0  0  0  0  0  0
    6.5960    6.1450   24.9400 C   0  0  0  0  0  0  0  0  0  0  0  0
    4.0730    6.0910   24.3760 C   0  0  0  0  0  0  0  0  0  0  0  0
    3.6500    6.3130   25.6280 N   0  0  0  0  0  0  0  0  0  0  0  0
    2.3290    6.2220   25.9500 C   0  0  0  0  0  0  0  0  0  0  0  0
    3.2370    5.9400   23.4740 O   0  0  0  0  0  0  0  0  0  0  0  0
    1.5530    7.5310   25.8350 C   0  0  0  0  0  0  0  0  0  0  0  0
    0.1910    7.5640   25.5380 C   0  0  0  0  0  0  0  0  0  0  0  0
   -0.4790    8.7930   25.4670 C   0  0  0  0  0  0  0  0  0  0  0  0
    0.2000    9.9820   25.7460 C   0  0  0  0  0  0  0  0  0  0  0  0
    1.5530    9.9430   26.0570 C   0  0  0  0  0  0  0  0  0  0  0  0
    2.2160    8.7230   26.1230 C   0  0  0  0  0  0  0  0  0  0  0  0
   -0.6350   11.5300   25.6710 S   0  0  0  0  0  0  0  0  0  0  0  0
   -0.5520   12.1070   24.1990 N   0  0  0  0  0  0  0  0  0  0  0  0
   -0.0690   12.4350   26.6210 O   0  0  0  0  0  0  0  0  0  0  0  0
   -2.0290   11.3330   26.0030 O   0  0  0  0  0  0  0  0  0  0  0  0
    5.4750    5.6290   21.4840 C   0  0  0  0  0  0  0  0  0  0  0  0
    5.1360    4.3500   21.0430 C   0  0  0  0  0  0  0  0  0  0  0  0
    4.5560    4.1820   19.7840 C   0  0  0  0  0  0  0  0  0  0  0  0
    5.4810    3.2770   21.7620 O   0  0  0  0  0  0  0  0  0  0  0  0
    4.2070    5.3000   19.0300 C   0  0  0  0  0  0  0  0  0  0  0  0
    4.5150    6.5760   19.4980 C   0  0  0  0  0  0  0  0  0  0  0  0
    3.6710    5.1540   17.8150 O   0  0  0  0  0  0  0  0  0  0  0  0
    4.0870    7.9920   18.5410 Cl  0  0  0  0  0  0  0  0  0  0  0  0
    5.1210    6.7410   20.7350 C   0  0  0  0  0  0  0  0  0  0  0  0
    8.2113    5.7554   22.2470 H   0  0  0  0  0  0  0  0  0  0  0  0
    6.4947    6.3075   26.0232 H   0  0  0  0  0  0  0  0  0  0  0  0
    4.3342    6.5563   26.3585 H   0  0  0  0  0  0  0  0  0  0  0  0
    1.8623    5.4868   25.2779 H   0  0  0  0  0  0  0  0  0  0  0  0
    2.2869    5.9279   27.0091 H   0  0  0  0  0  0  0  0  0  0  0  0
   -0.3568    6.6269   25.3597 H   0  0  0  0  0  0  0  0  0  0  0  0
   -1.5433    8.8217   25.1906 H   0  0  0  0  0  0  0  0  0  0  0  0
    2.0999   10.8775   26.2511 H   0  0  0  0  0  0  0  0  0  0  0  0
    3.2786    8.6978   26.4064 H   0  0  0  0  0  0  0  0  0  0  0  0
   -0.4054   13.1258   24.2373 H   0  0  0  0  0  0  0  0  0  0  0  0
    0.2341   11.6655   23.7010 H   0  0  0  0  0  0  0  0  0  0  0  0
    4.3755    3.1712   19.3894 H   0  0  0  0  0  0  0  0  0  0  0  0
    5.2387    2.3706   21.4460 H   0  0  0  0  0  0  0  0  0  0  0  0
    3.4248    5.9521   17.2834 H   0  0  0  0  0  0  0  0  0  0  0  0
    5.3202    7.7517   21.1208 H   0  0  0  0  0  0  0  0  0  0  0  0
  2  1  1  0  0  0  0
  2 29  1  0  0  0  0
  3  2  1  0  0  0  0
  4  3  2  0  0  0  0
  5  4  1  0  0  0  0
  5  1  2  0  0  0  0
  5 30  1  0  0  0  0
  6  4  1  0  0  0  0
  7  6  1  0  0  0  0
  7 31  1  0  0  0  0
  8  7  1  0  0  0  0
  8 32  1  0  0  0  0
  8 33  1  0  0  0  0
  9  6  2  0  0  0  0
 10  8  1  0  0  0  0
 11 10  2  0  0  0  0
 11 34  1  0  0  0  0
 12 11  1  0  0  0  0
 12 35  1  0  0  0  0
 13 12  2  0  0  0  0
 14 13  1  0  0  0  0
 14 36  1  0  0  0  0
 15 14  2  0  0  0  0
 15 10  1  0  0  0  0
 15 37  1  0  0  0  0
 16 13  1  0  0  0  0
 17 16  1  0  0  0  0
 17 38  1  0  0  0  0
 17 39  1  0  0  0  0
 18 16  2  0  0  0  0
 19 16  2  0  0  0  0
 20  3  1  0  0  0  0
 21 20  2  0  0  0  0
 22 21  1  0  0  0  0
 22 40  1  0  0  0  0
 23 21  1  0  0  0  0
 23 41  1  0  0  0  0
 24 22  2  0  0  0  0
 25 24  1  0  0  0  0
 26 24  1  0  0  0  0
 26 42  1  0  0  0  0
 27 25  1  0  0  0  0
 28 25  2  0  0  0  0
 28 20  1  0  0  0  0
 28 43  1  0  0  0  0
M  END
$$$$
