@<TRIPOS>MOLECULE
IZD
 60 62 0 0 0
SMALL
GASTEIGER

@<TRIPOS>ATOM
      1 C          45.8010   10.2310   -0.4630 C.3     1  UNL1        0.1031
      2 C          45.0000   10.5660    0.7980 C.3     1  UNL1       -0.0007
      3 C          45.4300   11.8560    1.4230 C.ar    1  UNL1       -0.0451
      4 C          46.4830   11.8650    2.4640 C.ar    1  UNL1       -0.0582
      5 C          46.8860   13.1390    3.0730 C.ar    1  UNL1       -0.0564
      6 C          46.2470   14.3840    2.6320 C.ar    1  UNL1       -0.0212
      7 C          45.2300   14.3620    1.5760 C.ar    1  UNL1       -0.0564
      8 C          44.8290   13.1040    0.9720 C.ar    1  UNL1       -0.0582
      9 C          46.6400   15.7170    3.2520 C.3     1  UNL1        0.1290
     10 C          48.1010   16.0030    3.4050 C.3     1  UNL1        0.0535
     11 C          48.2830   17.0260    4.4890 C.2     1  UNL1        0.2339
     12 N          47.2340   17.1590    5.3170 N.am    1  UNL1       -0.1893
     13 O          49.2920   17.7070    4.6440 O.2     1  UNL1       -0.2742
     14 S          45.9940   15.8900    4.9220 S.O2    1  UNL1        0.0526
     15 O          44.4130   16.4050    4.9530 O.2     1  UNL1       -0.1545
     16 O          46.2770   14.4850    5.7310 O.2     1  UNL1       -0.1545
     17 C          45.1370   10.8570   -1.6620 C.2     1  UNL1        0.2311
     18 O          44.0240   10.5180   -2.0280 O.2     1  UNL1       -0.2740
     19 N          45.7750   11.8560   -2.2710 N.am    1  UNL1       -0.3278
     20 N          47.1650   10.7430   -0.2880 N.am    1  UNL1       -0.3022
     21 C          48.1240    9.8210   -0.3150 C.2     1  UNL1        0.2343
     22 O          47.8500    8.6390   -0.4490 O.2     1  UNL1       -0.2738
     23 C          49.5520   10.2920   -0.1820 C.3     1  UNL1        0.1033
     24 C          49.6230   11.7790   -0.5100 C.3     1  UNL1       -0.0007
     25 C          50.9620   12.1960   -1.0390 C.ar    1  UNL1       -0.0451
     26 C          52.0250   12.5930   -0.1040 C.ar    1  UNL1       -0.0585
     27 C          53.3300   13.0040   -0.6150 C.ar    1  UNL1       -0.0615
     28 C          53.5800   13.0150   -2.0660 C.ar    1  UNL1       -0.0617
     29 C          52.5170   12.6220   -3.0060 C.ar    1  UNL1       -0.0615
     30 C          51.2070   12.2170   -2.4940 C.ar    1  UNL1       -0.0585
     31 N          50.4390    9.5590   -1.1010 N.am    1  UNL1       -0.3039
     32 C          51.5050    8.8990   -0.6410 C.2     1  UNL1        0.2105
     33 O          51.7540    8.8670    0.5750 O.2     1  UNL1       -0.2761
     34 C          52.4550    8.2350   -1.6240 C.3     1  UNL1        0.0122
     35 H          45.8390    9.1438   -0.6257 H       1  UNL1        0.0598
     36 H          43.9356   10.6409    0.5305 H       1  UNL1        0.0336
     37 H          45.1771    9.7641    1.5299 H       1  UNL1        0.0336
     38 H          46.9596   10.9248    2.7786 H       1  UNL1        0.0620
     39 H          47.6608   13.1598    3.8536 H       1  UNL1        0.0621
     40 H          44.7689   15.3025    1.2400 H       1  UNL1        0.0621
     41 H          44.0717   13.0933    0.1742 H       1  UNL1        0.0620
     42 H          46.2152   16.4138    2.5144 H       1  UNL1        0.0609
     43 H          48.6322   15.0787    3.6760 H       1  UNL1        0.0381
     44 H          48.5080   16.3860    2.4576 H       1  UNL1        0.0381
     45 H          47.1460   17.8682    6.0588 H       1  UNL1        0.1761
     46 H          45.3540   12.3101   -3.0941 H       1  UNL1        0.1450
     47 H          46.6891   12.1741   -1.9186 H       1  UNL1        0.1450
     48 H          47.3657   11.7443   -0.1539 H       1  UNL1        0.1495
     49 H          49.8828   10.1075    0.8507 H       1  UNL1        0.0598
     50 H          48.8593   12.0082   -1.2678 H       1  UNL1        0.0336
     51 H          49.4505   12.3320    0.4251 H       1  UNL1        0.0336
     52 H          51.8375   12.5805    0.9798 H       1  UNL1        0.0620
     53 H          54.1250   13.3049    0.0832 H       1  UNL1        0.0618
     54 H          54.5654   13.3182   -2.4495 H       1  UNL1        0.0618
     55 H          52.7068   12.6327   -4.0895 H       1  UNL1        0.0618
     56 H          50.4071   11.9290   -3.1921 H       1  UNL1        0.0620
     57 H          50.2348    9.5553   -2.1106 H       1  UNL1        0.1495
     58 H          53.2340    7.6905   -1.0702 H       1  UNL1        0.0322
     59 H          51.8948    7.5308   -2.2566 H       1  UNL1        0.0322
     60 H          52.9238    9.0031   -2.2566 H       1  UNL1        0.0322
@<TRIPOS>BOND
     1     2     1    1
     2     3     2    1
     3     4     3   ar
     4     5     4   ar
     5     6     5   ar
     6     7     6   ar
     7     8     7   ar
     8     8     3   ar
     9     9     6    1
    10    10     9    1
    11    11    10    1
    12    12    11   am
    13    13    11    2
    14    14     9    1
    15    14    12    1
    16    15    14    2
    17    16    14    2
    18    17     1    1
    19    18    17    2
    20    19    17   am
    21    20     1    1
    22    21    20   am
    23    22    21    2
    24    23    21    1
    25    24    23    1
    26    25    24    1
    27    26    25   ar
    28    27    26   ar
    29    28    27   ar
    30    29    28   ar
    31    30    29   ar
    32    30    25   ar
    33    31    23    1
    34    32    31   am
    35    33    32    2
    36    34    32    1
    37     1    35    1
    38     2    36    1
    39     2    37    1
    40     4    38    1
    41     5    39    1
    42     7    40    1
    43     8    41    1
    44     9    42    1
    45    10    43    1
    46    10    44    1
    47    12    45    1
    48    19    46    1
    49    19    47    1
    50    20    48    1
    51    23    49    1
    52    24    50    1
    53    24    51    1
    54    26    52    1
    55    27    53    1
    56    28    54    1
    57    29    55    1
    58    30    56    1
    59    31    57    1
    60    34    58    1
    61    34    59    1
    62    34    60    1
