IZD
 OpenBabel11032217013D

 60 62  0  0  0  0  0  0  0  0999 V2000
   45.8010   10.2310   -0.4630 C   0  0  1  0  0  0  0  0  0  0  0  0
   45.0000   10.5660    0.7980 C   0  0  0  0  0  0  0  0  0  0  0  0
   45.4300   11.8560    1.4230 C   0  0  0  0  0  0  0  0  0  0  0  0
   46.4830   11.8650    2.4640 C   0  0  0  0  0  0  0  0  0  0  0  0
   46.8860   13.1390    3.0730 C   0  0  0  0  0  0  0  0  0  0  0  0
   46.2470   14.3840    2.6320 C   0  0  0  0  0  0  0  0  0  0  0  0
   45.2300   14.3620    1.5760 C   0  0  0  0  0  0  0  0  0  0  0  0
   44.8290   13.1040    0.9720 C   0  0  0  0  0  0  0  0  0  0  0  0
   46.6400   15.7170    3.2520 C   0  0  2  0  0  0  0  0  0  0  0  0
   48.1010   16.0030    3.4050 C   0  0  0  0  0  0  0  0  0  0  0  0
   48.2830   17.0260    4.4890 C   0  0  0  0  0  0  0  0  0  0  0  0
   47.2340   17.1590    5.3170 N   0  0  0  0  0  0  0  0  0  0  0  0
   49.2920   17.7070    4.6440 O   0  0  0  0  0  0  0  0  0  0  0  0
   45.9940   15.8900    4.9220 S   0  0  0  0  0  0  0  0  0  0  0  0
   44.4130   16.4050    4.9530 O   0  0  0  0  0  0  0  0  0  0  0  0
   46.2770   14.4850    5.7310 O   0  0  0  0  0  0  0  0  0  0  0  0
   45.1370   10.8570   -1.6620 C   0  0  0  0  0  0  0  0  0  0  0  0
   44.0240   10.5180   -2.0280 O   0  0  0  0  0  0  0  0  0  0  0  0
   45.7750   11.8560   -2.2710 N   0  0  0  0  0  0  0  0  0  0  0  0
   47.1650   10.7430   -0.2880 N   0  0  0  0  0  0  0  0  0  0  0  0
   48.1240    9.8210   -0.3150 C   0  0  0  0  0  0  0  0  0  0  0  0
   47.8500    8.6390   -0.4490 O   0  0  0  0  0  0  0  0  0  0  0  0
   49.5520   10.2920   -0.1820 C   0  0  2  0  0  0  0  0  0  0  0  0
   49.6230   11.7790   -0.5100 C   0  0  0  0  0  0  0  0  0  0  0  0
   50.9620   12.1960   -1.0390 C   0  0  0  0  0  0  0  0  0  0  0  0
   52.0250   12.5930   -0.1040 C   0  0  0  0  0  0  0  0  0  0  0  0
   53.3300   13.0040   -0.6150 C   0  0  0  0  0  0  0  0  0  0  0  0
   53.5800   13.0150   -2.0660 C   0  0  0  0  0  0  0  0  0  0  0  0
   52.5170   12.6220   -3.0060 C   0  0  0  0  0  0  0  0  0  0  0  0
   51.2070   12.2170   -2.4940 C   0  0  0  0  0  0  0  0  0  0  0  0
   50.4390    9.5590   -1.1010 N   0  0  0  0  0  0  0  0  0  0  0  0
   51.5050    8.8990   -0.6410 C   0  0  0  0  0  0  0  0  0  0  0  0
   51.7540    8.8670    0.5750 O   0  0  0  0  0  0  0  0  0  0  0  0
   52.4550    8.2350   -1.6240 C   0  0  0  0  0  0  0  0  0  0  0  0
   45.8390    9.1438   -0.6257 H   0  0  0  0  0  0  0  0  0  0  0  0
   43.9356   10.6409    0.5305 H   0  0  0  0  0  0  0  0  0  0  0  0
   45.1771    9.7641    1.5299 H   0  0  0  0  0  0  0  0  0  0  0  0
   46.9596   10.9248    2.7786 H   0  0  0  0  0  0  0  0  0  0  0  0
   47.6608   13.1598    3.8536 H   0  0  0  0  0  0  0  0  0  0  0  0
   44.7689   15.3025    1.2400 H   0  0  0  0  0  0  0  0  0  0  0  0
   44.0717   13.0933    0.1742 H   0  0  0  0  0  0  0  0  0  0  0  0
   46.2152   16.4138    2.5144 H   0  0  0  0  0  0  0  0  0  0  0  0
   48.6322   15.0787    3.6760 H   0  0  0  0  0  0  0  0  0  0  0  0
   48.5080   16.3860    2.4576 H   0  0  0  0  0  0  0  0  0  0  0  0
   47.1460   17.8682    6.0588 H   0  0  0  0  0  0  0  0  0  0  0  0
   45.3540   12.3101   -3.0941 H   0  0  0  0  0  0  0  0  0  0  0  0
   46.6891   12.1741   -1.9186 H   0  0  0  0  0  0  0  0  0  0  0  0
   47.3657   11.7443   -0.1539 H   0  0  0  0  0  0  0  0  0  0  0  0
   49.8828   10.1075    0.8507 H   0  0  0  0  0  0  0  0  0  0  0  0
   48.8593   12.0082   -1.2678 H   0  0  0  0  0  0  0  0  0  0  0  0
   49.4505   12.3320    0.4251 H   0  0  0  0  0  0  0  0  0  0  0  0
   51.8375   12.5805    0.9798 H   0  0  0  0  0  0  0  0  0  0  0  0
   54.1250   13.3049    0.0832 H   0  0  0  0  0  0  0  0  0  0  0  0
   54.5654   13.3182   -2.4495 H   0  0  0  0  0  0  0  0  0  0  0  0
   52.7068   12.6327   -4.0895 H   0  0  0  0  0  0  0  0  0  0  0  0
   50.4071   11.9290   -3.1921 H   0  0  0  0  0  0  0  0  0  0  0  0
   50.2348    9.5553   -2.1106 H   0  0  0  0  0  0  0  0  0  0  0  0
   53.2340    7.6905   -1.0702 H   0  0  0  0  0  0  0  0  0  0  0  0
   51.8948    7.5308   -2.2566 H   0  0  0  0  0  0  0  0  0  0  0  0
   52.9238    9.0031   -2.2566 H   0  0  0  0  0  0  0  0  0  0  0  0
  1 35  1  6  0  0  0
  2  1  1  0  0  0  0
  2 36  1  0  0  0  0
  2 37  1  0  0  0  0
  3  2  1  0  0  0  0
  4  3  2  0  0  0  0
  4 38  1  0  0  0  0
  5  4  1  0  0  0  0
  5 39  1  0  0  0  0
  6  5  2  0  0  0  0
  7  6  1  0  0  0  0
  7 40  1  0  0  0  0
  8  7  2  0  0  0  0
  8  3  1  0  0  0  0
  8 41  1  0  0  0  0
  9  6  1  0  0  0  0
  9 42  1  6  0  0  0
 10  9  1  0  0  0  0
 10 43  1  0  0  0  0
 10 44  1  0  0  0  0
 11 10  1  0  0  0  0
 12 11  1  0  0  0  0
 12 45  1  0  0  0  0
 13 11  2  0  0  0  0
 14  9  1  0  0  0  0
 14 12  1  0  0  0  0
 15 14  2  0  0  0  0
 16 14  2  0  0  0  0
 17  1  1  0  0  0  0
 18 17  2  0  0  0  0
 19 17  1  0  0  0  0
 19 46  1  0  0  0  0
 19 47  1  0  0  0  0
 20  1  1  0  0  0  0
 20 48  1  0  0  0  0
 21 20  1  0  0  0  0
 22 21  2  0  0  0  0
 23 21  1  0  0  0  0
 23 49  1  1  0  0  0
 24 23  1  0  0  0  0
 24 50  1  0  0  0  0
 24 51  1  0  0  0  0
 25 24  1  0  0  0  0
 26 25  2  0  0  0  0
 26 52  1  0  0  0  0
 27 26  1  0  0  0  0
 27 53  1  0  0  0  0
 28 27  2  0  0  0  0
 28 54  1  0  0  0  0
 29 28  1  0  0  0  0
 29 55  1  0  0  0  0
 30 29  2  0  0  0  0
 30 25  1  0  0  0  0
 30 56  1  0  0  0  0
 31 23  1  0  0  0  0
 31 57  1  0  0  0  0
 32 31  1  0  0  0  0
 33 32  2  0  0  0  0
 34 32  1  0  0  0  0
 34 58  1  0  0  0  0
 34 59  1  0  0  0  0
 34 60  1  0  0  0  0
M  END
$$$$
