@<TRIPOS>MOLECULE
1EO
 43 47 0 0 0
SMALL
GASTEIGER

@<TRIPOS>ATOM
      1 C          43.9200   61.4980   82.9570 C.ar    1  UNL1        0.2037
      2 C          46.1220   61.5160   82.8350 C.ar    1  UNL1        0.1441
      3 N          45.7980   61.4440   84.1100 N.ar    1  UNL1       -0.1330
      4 N          44.3600   61.4360   84.1900 N.ar    1  UNL1       -0.1256
      5 C          44.7790   61.5980   80.7140 C.ar    1  UNL1        0.0131
      6 C          42.5520   61.5230   82.4270 C.ar    1  UNL1        0.1730
      7 C          42.3530   61.5870   81.0830 C.ar    1  UNL1       -0.0142
      8 C          43.5380   61.6260   80.1810 C.ar    1  UNL1       -0.0415
      9 N          44.9800   61.5340   82.0840 N.ar    1  UNL1       -0.2830
     10 C          47.5230   61.4990   82.3160 C.3     1  UNL1        0.0337
     11 C          48.5720   61.1660   83.4040 C.3     1  UNL1       -0.0377
     12 C          49.8720   61.8120   82.8930 C.3     1  UNL1       -0.0231
     13 C          49.4820   62.3820   81.5160 C.3     1  UNL1        0.0671
     14 C          49.1490   61.2200   80.5410 C.3     1  UNL1       -0.0231
     15 C          48.0970   62.8900   81.9670 C.3     1  UNL1       -0.0114
     16 O          50.1790   63.5030   80.9840 O.3     1  UNL1       -0.3885
     17 C          47.8080   60.6550   81.0620 C.3     1  UNL1       -0.0377
     18 O          41.5440   61.4710   83.3390 O.3     1  UNL1       -0.4494
     19 C          40.6350   62.4770   83.4410 C.ar    1  UNL1        0.1636
     20 C          40.7860   63.3500   84.5070 C.ar    1  UNL1        0.1654
     21 C          39.8890   64.4120   84.6920 C.ar    1  UNL1       -0.0228
     22 F          41.8270   63.1380   85.3470 F       1  UNL1       -0.2016
     23 C          38.8390   64.5650   83.7720 C.ar    1  UNL1       -0.0588
     24 C          38.6750   63.6690   82.6940 C.ar    1  UNL1       -0.0581
     25 C          39.5830   62.6080   82.5200 C.ar    1  UNL1       -0.0165
     26 H          45.6513   61.6267   80.0445 H       1  UNL1        0.0814
     27 H          41.3341   61.6096   80.6690 H       1  UNL1        0.0656
     28 H          43.4036   61.6772   79.0904 H       1  UNL1        0.0633
     29 H          48.2781   61.5964   84.3727 H       1  UNL1        0.0276
     30 H          48.6778   60.0833   83.5669 H       1  UNL1        0.0276
     31 H          50.2035   62.6136   83.5694 H       1  UNL1        0.0293
     32 H          50.7080   61.0993   82.8373 H       1  UNL1        0.0293
     33 H          49.0406   61.5938   79.5122 H       1  UNL1        0.0293
     34 H          49.9417   60.4580   80.5098 H       1  UNL1        0.0293
     35 H          47.5426   63.3881   81.1580 H       1  UNL1        0.0302
     36 H          48.0751   63.6553   82.7568 H       1  UNL1        0.0302
     37 H          50.5248   64.0592   81.7264 H       1  UNL1        0.2102
     38 H          47.9039   59.5897   81.3190 H       1  UNL1        0.0276
     39 H          47.0015   60.7118   80.3161 H       1  UNL1        0.0276
     40 H          40.0049   65.1075   85.5363 H       1  UNL1        0.0647
     41 H          38.1315   65.3984   83.8938 H       1  UNL1        0.0618
     42 H          37.8390   63.7997   81.9911 H       1  UNL1        0.0619
     43 H          39.4717   61.9004   81.6852 H       1  UNL1        0.0655
@<TRIPOS>BOND
     1     3     2   ar
     2     4     3   ar
     3     4     1   ar
     4     6     1   ar
     5     7     6   ar
     6     8     7   ar
     7     8     5   ar
     8     9     5   ar
     9     9     2   ar
    10     9     1   ar
    11    10     2    1
    12    11    10    1
    13    12    11    1
    14    13    12    1
    15    14    13    1
    16    15    10    1
    17    15    13    1
    18    16    13    1
    19    17    10    1
    20    17    14    1
    21    18     6    1
    22    19    18    1
    23    20    19   ar
    24    21    20   ar
    25    22    20    1
    26    23    21   ar
    27    24    23   ar
    28    25    24   ar
    29    25    19   ar
    30     5    26    1
    31     7    27    1
    32     8    28    1
    33    11    29    1
    34    11    30    1
    35    12    31    1
    36    12    32    1
    37    14    33    1
    38    14    34    1
    39    15    35    1
    40    15    36    1
    41    16    37    1
    42    17    38    1
    43    17    39    1
    44    21    40    1
    45    23    41    1
    46    24    42    1
    47    25    43    1
