1EO
 OpenBabel09072215113D

 43 47  0  0  0  0  0  0  0  0999 V2000
   43.9200   61.4980   82.9570 C   0  0  0  0  0  0  0  0  0  0  0  0
   46.1220   61.5160   82.8350 C   0  0  0  0  0  0  0  0  0  0  0  0
   45.7980   61.4440   84.1100 N   0  0  0  0  0  0  0  0  0  0  0  0
   44.3600   61.4360   84.1900 N   0  0  0  0  0  0  0  0  0  0  0  0
   44.7790   61.5980   80.7140 C   0  0  0  0  0  0  0  0  0  0  0  0
   42.5520   61.5230   82.4270 C   0  0  0  0  0  0  0  0  0  0  0  0
   42.3530   61.5870   81.0830 C   0  0  0  0  0  0  0  0  0  0  0  0
   43.5380   61.6260   80.1810 C   0  0  0  0  0  0  0  0  0  0  0  0
   44.9800   61.5340   82.0840 N   0  0  0  0  0  0  0  0  0  0  0  0
   47.5230   61.4990   82.3160 C   0  0  2  0  0  0  0  0  0  0  0  0
   48.5720   61.1660   83.4040 C   0  0  0  0  0  0  0  0  0  0  0  0
   49.8720   61.8120   82.8930 C   0  0  0  0  0  0  0  0  0  0  0  0
   49.4820   62.3820   81.5160 C   0  0  1  0  0  0  0  0  0  0  0  0
   49.1490   61.2200   80.5410 C   0  0  0  0  0  0  0  0  0  0  0  0
   48.0970   62.8900   81.9670 C   0  0  0  0  0  0  0  0  0  0  0  0
   50.1790   63.5030   80.9840 O   0  0  0  0  0  0  0  0  0  0  0  0
   47.8080   60.6550   81.0620 C   0  0  0  0  0  0  0  0  0  0  0  0
   41.5440   61.4710   83.3390 O   0  0  0  0  0  0  0  0  0  0  0  0
   40.6350   62.4770   83.4410 C   0  0  0  0  0  0  0  0  0  0  0  0
   40.7860   63.3500   84.5070 C   0  0  0  0  0  0  0  0  0  0  0  0
   39.8890   64.4120   84.6920 C   0  0  0  0  0  0  0  0  0  0  0  0
   41.8270   63.1380   85.3470 F   0  0  0  0  0  0  0  0  0  0  0  0
   38.8390   64.5650   83.7720 C   0  0  0  0  0  0  0  0  0  0  0  0
   38.6750   63.6690   82.6940 C   0  0  0  0  0  0  0  0  0  0  0  0
   39.5830   62.6080   82.5200 C   0  0  0  0  0  0  0  0  0  0  0  0
   45.6513   61.6267   80.0445 H   0  0  0  0  0  0  0  0  0  0  0  0
   41.3341   61.6096   80.6690 H   0  0  0  0  0  0  0  0  0  0  0  0
   43.4036   61.6772   79.0904 H   0  0  0  0  0  0  0  0  0  0  0  0
   48.2781   61.5964   84.3727 H   0  0  0  0  0  0  0  0  0  0  0  0
   48.6778   60.0833   83.5669 H   0  0  0  0  0  0  0  0  0  0  0  0
   50.2035   62.6136   83.5694 H   0  0  0  0  0  0  0  0  0  0  0  0
   50.7080   61.0993   82.8373 H   0  0  0  0  0  0  0  0  0  0  0  0
   49.0406   61.5938   79.5122 H   0  0  0  0  0  0  0  0  0  0  0  0
   49.9417   60.4580   80.5098 H   0  0  0  0  0  0  0  0  0  0  0  0
   47.5426   63.3881   81.1580 H   0  0  0  0  0  0  0  0  0  0  0  0
   48.0751   63.6553   82.7568 H   0  0  0  0  0  0  0  0  0  0  0  0
   50.5248   64.0592   81.7264 H   0  0  0  0  0  0  0  0  0  0  0  0
   47.9039   59.5897   81.3190 H   0  0  0  0  0  0  0  0  0  0  0  0
   47.0015   60.7118   80.3161 H   0  0  0  0  0  0  0  0  0  0  0  0
   40.0049   65.1075   85.5363 H   0  0  0  0  0  0  0  0  0  0  0  0
   38.1315   65.3984   83.8938 H   0  0  0  0  0  0  0  0  0  0  0  0
   37.8390   63.7997   81.9911 H   0  0  0  0  0  0  0  0  0  0  0  0
   39.4717   61.9004   81.6852 H   0  0  0  0  0  0  0  0  0  0  0  0
  3  2  2  0  0  0  0
  4  3  1  0  0  0  0
  4  1  2  0  0  0  0
  5 26  1  0  0  0  0
  6  1  1  0  0  0  0
  7  6  2  0  0  0  0
  7 27  1  0  0  0  0
  8  7  1  0  0  0  0
  8  5  2  0  0  0  0
  8 28  1  0  0  0  0
  9  5  1  0  0  0  0
  9  2  1  0  0  0  0
  9  1  1  0  0  0  0
 10  2  1  1  0  0  0
 11 10  1  0  0  0  0
 11 29  1  0  0  0  0
 11 30  1  0  0  0  0
 12 11  1  0  0  0  0
 12 31  1  0  0  0  0
 12 32  1  0  0  0  0
 13 12  1  0  0  0  0
 13 16  1  6  0  0  0
 14 13  1  0  0  0  0
 14 33  1  0  0  0  0
 14 34  1  0  0  0  0
 15 10  1  0  0  0  0
 15 13  1  0  0  0  0
 15 35  1  0  0  0  0
 15 36  1  0  0  0  0
 16 37  1  0  0  0  0
 17 10  1  0  0  0  0
 17 14  1  0  0  0  0
 17 38  1  0  0  0  0
 17 39  1  0  0  0  0
 18  6  1  0  0  0  0
 19 18  1  0  0  0  0
 20 19  2  0  0  0  0
 21 20  1  0  0  0  0
 21 40  1  0  0  0  0
 22 20  1  0  0  0  0
 23 21  2  0  0  0  0
 23 41  1  0  0  0  0
 24 23  1  0  0  0  0
 24 42  1  0  0  0  0
 25 24  2  0  0  0  0
 25 19  1  0  0  0  0
 25 43  1  0  0  0  0
M  END
$$$$
