@<TRIPOS>MOLECULE
163
 65 67 0 0 0
SMALL
GASTEIGER

@<TRIPOS>ATOM
      1 O          14.3580  -16.1290   20.3060 O.2     1  UNL1       -0.2706
      2 N          16.2360  -16.0620   19.0690 N.ar    1  UNL1       -0.2815
      3 C          16.5350  -17.5100   18.9850 C.ar    1  UNL1        0.1109
      4 C          17.6640  -17.6750   17.9970 C.ar    1  UNL1       -0.0313
      5 C          18.1040  -16.5070   17.6170 C.ar    1  UNL1       -0.0430
      6 C          17.3280  -15.4140   18.3020 C.ar    1  UNL1        0.0132
      7 C          15.1820  -15.4550   19.7140 C.2     1  UNL1        0.2490
      8 C          16.8980  -18.0660   20.3510 C.2     1  UNL1        0.2612
      9 O          16.7420  -19.2510   20.5950 O.2     1  UNL1       -0.2686
     10 N          17.4090  -17.2170   21.2830 N.am    1  UNL1       -0.3046
     11 C          17.8010  -17.6750   22.6280 C.3     1  UNL1        0.0524
     12 C          18.9090  -16.7800   23.1340 C.ar    1  UNL1        0.0363
     13 N          19.8610  -17.1190   24.0410 N.ar    1  UNL1       -0.3397
     14 C          20.6890  -16.0220   24.2380 C.ar    1  UNL1        0.1328
     15 C          19.9900  -18.4400   24.7120 C.3     1  UNL1        0.0124
     16 C          20.2200  -15.0210   23.4350 C.ar    1  UNL1       -0.0286
     17 C          19.1090  -15.5100   22.7500 C.ar    1  UNL1       -0.0386
     18 C          21.8720  -15.9310   25.1440 C.2     1  UNL1        0.3248
     19 N          23.0440  -16.4440   24.7670 N.2     1  UNL1       -0.0981
     20 N          21.7490  -15.3300   26.3230 N.pl3   1  UNL1       -0.2454
     21 C          15.0270  -13.9430   19.7000 C.3     1  UNL1        0.0884
     22 N          14.5560  -13.4860   21.0160 N.3     1  UNL1       -0.2959
     23 C          13.8140  -12.2250   21.1460 C.3     1  UNL1        0.0948
     24 C          12.4310  -12.4960   21.6870 C.2     1  UNL1        0.3188
     25 O          11.4940  -12.6700   20.9230 O.2     1  UNL1       -0.2496
     26 O          12.2470  -12.5380   22.8920 O.3     1  UNL1       -0.4797
     27 C          14.0110  -13.5150   18.6170 C.3     1  UNL1       -0.0259
     28 C          14.6670  -12.5780   17.5870 C.3     1  UNL1       -0.0392
     29 C          15.9930  -12.0270   18.1580 C.3     1  UNL1       -0.0501
     30 C          16.6640  -11.0820   17.1300 C.3     1  UNL1       -0.0528
     31 C          16.9250  -11.8310   15.7990 C.3     1  UNL1       -0.0530
     32 C          15.6020  -12.4060   15.2370 C.3     1  UNL1       -0.0528
     33 C          14.9450  -13.3490   16.2730 C.3     1  UNL1       -0.0501
     34 H          18.0588  -18.6405   17.6478 H       1  UNL1        0.0640
     35 H          18.9227  -16.3446   16.9005 H       1  UNL1        0.0633
     36 H          17.5327  -14.3348   18.2445 H       1  UNL1        0.0814
     37 H          17.5257  -16.2226   21.0411 H       1  UNL1        0.1494
     38 H          16.9372  -17.6164   23.3066 H       1  UNL1        0.0526
     39 H          18.1480  -18.7179   22.5853 H       1  UNL1        0.0526
     40 H          19.9763  -18.3000   25.8030 H       1  UNL1        0.0456
     41 H          19.1506  -19.0858   24.4147 H       1  UNL1        0.0456
     42 H          20.9384  -18.9112   24.4147 H       1  UNL1        0.0456
     43 H          20.6436  -14.0098   23.3452 H       1  UNL1        0.0641
     44 H          18.5021  -14.9521   22.0217 H       1  UNL1        0.0636
     45 H          23.8593  -16.3804   25.3932 H       1  UNL1        0.3633
     46 H          22.5603  -15.2630   26.9540 H       1  UNL1        0.2885
     47 H          20.8424  -14.9313   26.6057 H       1  UNL1        0.2885
     48 H          16.0031  -13.4893   19.4734 H       1  UNL1        0.0559
     49 H          13.9437  -14.2279   21.3841 H       1  UNL1        0.1232
     50 H          14.3503  -11.5556   21.8347 H       1  UNL1        0.0539
     51 H          13.7295  -11.7509   20.1570 H       1  UNL1        0.0539
     52 H          11.3406  -12.7156   23.2484 H       1  UNL1        0.2951
     53 H          13.6360  -14.4111   18.1009 H       1  UNL1        0.0288
     54 H          13.1841  -12.9774   19.1041 H       1  UNL1        0.0288
     55 H          13.9850  -11.7414   17.3748 H       1  UNL1        0.0301
     56 H          15.7867  -11.4698   19.0837 H       1  UNL1        0.0268
     57 H          16.6704  -12.8674   18.3698 H       1  UNL1        0.0268
     58 H          16.0019  -10.2245   16.9397 H       1  UNL1        0.0265
     59 H          17.6244  -10.7342   17.5383 H       1  UNL1        0.0265
     60 H          17.3562  -11.1316   15.0677 H       1  UNL1        0.0265
     61 H          17.6240  -12.6595   15.9860 H       1  UNL1        0.0265
     62 H          14.9134  -11.5785   15.0112 H       1  UNL1        0.0265
     63 H          15.8191  -12.9753   14.3212 H       1  UNL1        0.0265
     64 H          13.9969  -13.7321   15.8675 H       1  UNL1        0.0268
     65 H          15.6260  -14.1871   16.4824 H       1  UNL1        0.0268
@<TRIPOS>BOND
     1     3     2   ar
     2     4     3   ar
     3     5     4   ar
     4     6     2   ar
     5     6     5   ar
     6     7     2   am
     7     7     1    2
     8     8     3    1
     9     9     8    2
    10    10     8   am
    11    11    10    1
    12    12    11    1
    13    13    12   ar
    14    14    13   ar
    15    15    13    1
    16    16    14   ar
    17    17    12   ar
    18    17    16   ar
    19    18    14    1
    20    19    18    2
    21    20    18    1
    22    21     7    1
    23    22    21    1
    24    23    22    1
    25    24    23    1
    26    25    24    2
    27    26    24    1
    28    27    21    1
    29    28    27    1
    30    29    28    1
    31    30    29    1
    32    31    30    1
    33    32    31    1
    34    33    32    1
    35    33    28    1
    36     4    34    1
    37     5    35    1
    38     6    36    1
    39    10    37    1
    40    11    38    1
    41    11    39    1
    42    15    40    1
    43    15    41    1
    44    15    42    1
    45    16    43    1
    46    17    44    1
    47    19    45    1
    48    20    46    1
    49    20    47    1
    50    21    48    1
    51    22    49    1
    52    23    50    1
    53    23    51    1
    54    26    52    1
    55    27    53    1
    56    27    54    1
    57    28    55    1
    58    29    56    1
    59    29    57    1
    60    30    58    1
    61    30    59    1
    62    31    60    1
    63    31    61    1
    64    32    62    1
    65    32    63    1
    66    33    64    1
    67    33    65    1
