@<TRIPOS>MOLECULE
QUE
 32 34 0 0 0
SMALL
GASTEIGER

@<TRIPOS>ATOM
      1 C         169.0430 -121.8700    2.6480 C.ar    1  UNL1        0.0223
      2 C         169.2830 -122.4050    1.3640 C.ar    1  UNL1        0.1348
      3 C         169.1290 -121.6200    0.1590 C.ar    1  UNL1        0.1092
      4 C         168.7310 -120.2760    0.2790 C.ar    1  UNL1        0.1465
      5 C         168.4820 -119.7140    1.5950 C.ar    1  UNL1        0.0231
      6 C         168.6350 -120.4940    2.7890 C.ar    1  UNL1        0.1239
      7 C         169.3800 -122.1270   -1.2310 C.ar    1  UNL1        0.2379
      8 C         169.2150 -121.3130   -2.4720 C.ar    1  UNL1        0.2082
      9 C         168.9670 -119.9550   -2.2290 C.ar    1  UNL1        0.1807
     10 O         168.5890 -119.5350   -0.9270 O.2     1  UNL1       -0.4507
     11 O         169.7870 -123.3150   -1.3550 O.2     1  UNL1       -0.2830
     12 O         169.5910 -121.7880   -3.7010 O.3     1  UNL1       -0.5007
     13 O         168.3980 -119.9620    4.0490 O.3     1  UNL1       -0.5065
     14 O         169.6820 -123.7130    1.1420 O.3     1  UNL1       -0.5058
     15 C         168.8660 -118.8890   -3.3650 C.ar    1  UNL1        0.0247
     16 C         169.5100 -119.0690   -4.6040 C.ar    1  UNL1       -0.0473
     17 C         169.3960 -118.0630   -5.6130 C.ar    1  UNL1       -0.0159
     18 C         168.6550 -116.8790   -5.4090 C.ar    1  UNL1        0.1583
     19 C         167.9920 -116.6480   -4.1710 C.ar    1  UNL1        0.1589
     20 O         168.5930 -115.9610   -6.4340 O.3     1  UNL1       -0.5033
     21 C         168.1320 -117.6750   -3.1910 C.ar    1  UNL1       -0.0057
     22 O         167.3020 -115.5590   -3.9620 O.3     1  UNL1       -0.5033
     23 H         169.1670 -122.5018    3.5399 H       1  UNL1        0.0691
     24 H         168.1680 -118.6631    1.6781 H       1  UNL1        0.0691
     25 H         169.4699 -121.2262   -4.5071 H       1  UNL1        0.2924
     26 H         168.5125 -120.5265    4.8542 H       1  UNL1        0.2921
     27 H         169.8358 -124.0336    0.2180 H       1  UNL1        0.2922
     28 H         170.0978 -119.9790   -4.7945 H       1  UNL1        0.0626
     29 H         169.9012 -118.2162   -6.5780 H       1  UNL1        0.0655
     30 H         168.0801 -115.1224   -6.3171 H       1  UNL1        0.2923
     31 H         167.6344 -117.5200   -2.2223 H       1  UNL1        0.0662
     32 H         166.8489 -115.4192   -3.0929 H       1  UNL1        0.2923
@<TRIPOS>BOND
     1     2     1   ar
     2     3     2   ar
     3     4     3   ar
     4     5     4   ar
     5     6     5   ar
     6     6     1   ar
     7     7     3   ar
     8     8     7   ar
     9     9     8   ar
    10    10     4   ar
    11    10     9   ar
    12    11     7    2
    13    12     8    1
    14    13     6    1
    15    14     2    1
    16    15     9    1
    17    16    15   ar
    18    17    16   ar
    19    18    17   ar
    20    19    18   ar
    21    20    18    1
    22    21    19   ar
    23    21    15   ar
    24    22    19    1
    25     1    23    1
    26     5    24    1
    27    12    25    1
    28    13    26    1
    29    14    27    1
    30    16    28    1
    31    17    29    1
    32    20    30    1
    33    21    31    1
    34    22    32    1
