T4E
  -OEChem-11282016353D

 32 34  0     0  0  0  0  0  0999 V2000
    2.2760   -2.8500    0.2560 N   0  0  0  0  0  0  0  0  0  0  0  0
    1.0850   -2.3800    0.3820 N   0  0  0  0  0  0  0  0  0  0  0  0
    0.8550   -1.0790    0.2400 C   0  0  0  0  0  0  0  0  0  0  0  0
    1.9370   -0.2240   -0.0510 C   0  0  0  0  0  0  0  0  0  0  0  0
    3.1510   -0.7550   -0.1730 N   0  0  0  0  0  0  0  0  0  0  0  0
    3.3100   -2.0620   -0.0180 C   0  0  0  0  0  0  0  0  0  0  0  0
   -3.0790    0.4800    0.6550 C   0  0  0  0  0  0  0  0  0  0  0  0
   -2.0100    1.1250    1.2620 C   0  0  0  0  0  0  0  0  0  0  0  0
   -0.7340    0.6220    1.1300 C   0  0  0  0  0  0  0  0  0  0  0  0
   -0.5160   -0.5370    0.3850 C   0  0  0  0  0  0  0  0  0  0  0  0
   -1.5910   -1.1830   -0.2240 C   0  0  0  0  0  0  0  0  0  0  0  0
   -2.8670   -0.6780   -0.0830 C   0  0  0  0  0  0  0  0  0  0  0  0
    1.3350    3.9560   -0.5330 C   0  0  0  0  0  0  0  0  0  0  0  0
    2.3960    3.4960    0.2260 C   0  0  0  0  0  0  0  0  0  0  0  0
    2.5960    2.1400    0.3870 C   0  0  0  0  0  0  0  0  0  0  0  0
    1.7270    1.2330   -0.2190 C   0  0  0  0  0  0  0  0  0  0  0  0
    0.6590    1.7030   -0.9820 C   0  0  0  0  0  0  0  0  0  0  0  0
    0.4690    3.0620   -1.1350 C   0  0  0  0  0  0  0  0  0  0  0  0
    4.5730   -2.6150   -0.1440 N   0  0  0  0  0  0  0  0  0  0  0  0
   -4.2070   -1.4820   -0.8400 Cl  0  0  0  0  0  0  0  0  0  0  0  0
   -4.3360    0.9780    0.7880 O   0  0  0  0  0  0  0  0  0  0  0  0
   -2.1800    2.0230    1.8380 H   0  0  0  0  0  0  0  0  0  0  0  0
    0.0970    1.1260    1.6020 H   0  0  0  0  0  0  0  0  0  0  0  0
   -1.4250   -2.0810   -0.8020 H   0  0  0  0  0  0  0  0  0  0  0  0
    1.1800    5.0180   -0.6510 H   0  0  0  0  0  0  0  0  0  0  0  0
    3.0690    4.1990    0.6940 H   0  0  0  0  0  0  0  0  0  0  0  0
    3.4260    1.7820    0.9790 H   0  0  0  0  0  0  0  0  0  0  0  0
   -0.0180    1.0060   -1.4530 H   0  0  0  0  0  0  0  0  0  0  0  0
   -0.3580    3.4270   -1.7260 H   0  0  0  0  0  0  0  0  0  0  0  0
    5.3330   -2.0470   -0.3440 H   0  0  0  0  0  0  0  0  0  0  0  0
    4.6970   -3.5710   -0.0330 H   0  0  0  0  0  0  0  0  0  0  0  0
   -4.5830    1.6110    0.1000 H   0  0  0  0  0  0  0  0  0  0  0  0
 13 18  2  0  0  0  0
 13 14  1  0  0  0  0
 17 18  1  0  0  0  0
 14 15  2  0  0  0  0
 16 17  2  0  0  0  0
 15 16  1  0  0  0  0
  4 16  1  0  0  0  0
  4  5  2  0  0  0  0
  5  6  1  0  0  0  0
  6 19  1  0  0  0  0
  3  4  1  0  0  0  0
  1  6  2  0  0  0  0
  3 10  1  0  0  0  0
  2  3  2  0  0  0  0
  1  2  1  0  0  0  0
 10 11  2  0  0  0  0
  9 10  1  0  0  0  0
 11 12  1  0  0  0  0
  8  9  2  0  0  0  0
 12 20  1  0  0  0  0
  7 12  2  0  0  0  0
  7  8  1  0  0  0  0
  7 21  1  0  0  0  0
  8 22  1  0  0  0  0
  9 23  1  0  0  0  0
 11 24  1  0  0  0  0
 13 25  1  0  0  0  0
 14 26  1  0  0  0  0
 15 27  1  0  0  0  0
 17 28  1  0  0  0  0
 18 29  1  0  0  0  0
 19 30  1  0  0  0  0
 19 31  1  0  0  0  0
 21 32  1  0  0  0  0
M  END
> <OPENEYE_ISO_SMILES>
c1ccc(cc1)c2c(nnc(n2)N)c3ccc(c(c3)Cl)O

> <OPENEYE_INCHI>
InChI=1S/C15H11ClN4O/c16-11-8-10(6-7-12(11)21)14-13(18-15(17)20-19-14)9-4-2-1-3-5-9/h1-8,21H,(H2,17,18,20)

> <OPENEYE_INCHIKEY>
ZHUZHTHIEMXLRA-UHFFFAOYSA-N

> <FORMULA>
C15H11ClN4O

$$$$
