@<TRIPOS>MOLECULE
T4E
 32 34 0 0 0
SMALL
GASTEIGER

@<TRIPOS>ATOM
      1 N           2.2760   -2.8500    0.2560 N.ar    1  LIG1       -0.1129
      2 N           1.0850   -2.3800    0.3820 N.ar    1  LIG1       -0.1438
      3 C           0.8550   -1.0790    0.2400 C.ar    1  LIG1        0.1193
      4 C           1.9370   -0.2240   -0.0510 C.ar    1  LIG1        0.1022
      5 N           3.1510   -0.7550   -0.1730 N.ar    1  LIG1       -0.2112
      6 C           3.3100   -2.0620   -0.0180 C.ar    1  LIG1        0.2330
      7 C          -3.0790    0.4800    0.6550 C.ar    1  LIG1        0.1351
      8 C          -2.0100    1.1250    1.2620 C.ar    1  LIG1       -0.0181
      9 C          -0.7340    0.6220    1.1300 C.ar    1  LIG1       -0.0489
     10 C          -0.5160   -0.5370    0.3850 C.ar    1  LIG1        0.0058
     11 C          -1.5910   -1.1830   -0.2240 C.ar    1  LIG1       -0.0305
     12 C          -2.8670   -0.6780   -0.0830 C.ar    1  LIG1        0.0829
     13 C           1.3350    3.9560   -0.5330 C.ar    1  LIG1       -0.0617
     14 C           2.3960    3.4960    0.2260 C.ar    1  LIG1       -0.0611
     15 C           2.5960    2.1400    0.3870 C.ar    1  LIG1       -0.0525
     16 C           1.7270    1.2330   -0.2190 C.ar    1  LIG1        0.0026
     17 C           0.6590    1.7030   -0.9820 C.ar    1  LIG1       -0.0525
     18 C           0.4690    3.0620   -1.1350 C.ar    1  LIG1       -0.0611
     19 N           4.5730   -2.6150   -0.1440 N.pl3   1  LIG1       -0.3262
     20 CL         -4.2070   -1.4820   -0.8400 Cl      1  LIG1       -0.0797
     21 O          -4.3360    0.9780    0.7880 O.3     1  LIG1       -0.5053
     22 H          -2.1800    2.0230    1.8380 H       1  LIG1        0.0655
     23 H           0.0970    1.1260    1.6020 H       1  LIG1        0.0625
     24 H          -1.4250   -2.0810   -0.8020 H       1  LIG1        0.0640
     25 H           1.1800    5.0180   -0.6510 H       1  LIG1        0.0618
     26 H           3.0690    4.1990    0.6940 H       1  LIG1        0.0618
     27 H           3.4260    1.7820    0.9790 H       1  LIG1        0.0624
     28 H          -0.0180    1.0060   -1.4530 H       1  LIG1        0.0624
     29 H          -0.3580    3.4270   -1.7260 H       1  LIG1        0.0618
     30 H           5.3330   -2.0470   -0.3440 H       1  LIG1        0.1452
     31 H           4.6970   -3.5710   -0.0330 H       1  LIG1        0.1452
     32 H          -4.5830    1.6110    0.1000 H       1  LIG1        0.2922
@<TRIPOS>BOND
     1    13    18   ar
     2    13    14   ar
     3    17    18   ar
     4    14    15   ar
     5    16    17   ar
     6    15    16   ar
     7     4    16    1
     8     4     5   ar
     9     5     6   ar
    10     6    19    1
    11     3     4   ar
    12     1     6   ar
    13     3    10    1
    14     2     3   ar
    15     1     2   ar
    16    10    11   ar
    17     9    10   ar
    18    11    12   ar
    19     8     9   ar
    20    12    20    1
    21     7    12   ar
    22     7     8   ar
    23     7    21    1
    24     8    22    1
    25     9    23    1
    26    11    24    1
    27    13    25    1
    28    14    26    1
    29    15    27    1
    30    17    28    1
    31    18    29    1
    32    19    30    1
    33    19    31    1
    34    21    32    1
