T4E
  Mrv15b2303062314282D          

 22 24  0  0  0  0            999 V2000
    1.2612   -1.7827    0.0000 N   0  0  0  0  0  0  0  0  0  0  0  0
    1.2612   -0.9577    0.0000 N   0  0  0  0  0  0  0  0  0  0  0  0
    0.5467   -0.5452    0.0000 C   0  0  0  0  0  0  0  0  0  0  0  0
   -0.1678   -0.9577    0.0000 C   0  0  0  0  0  0  0  0  0  0  0  0
   -0.1678   -1.7827    0.0000 N   0  0  0  0  0  0  0  0  0  0  0  0
    0.5467   -2.1952    0.0000 C   0  0  0  0  0  0  0  0  0  0  0  0
    0.5467    1.9298    0.0000 C   0  0  0  0  0  0  0  0  0  0  0  0
   -0.1678    1.5173    0.0000 C   0  0  0  0  0  0  0  0  0  0  0  0
   -0.1678    0.6923    0.0000 C   0  0  0  0  0  0  0  0  0  0  0  0
    0.5467    0.2798    0.0000 C   0  0  0  0  0  0  0  0  0  0  0  0
    1.2612    0.6923    0.0000 C   0  0  0  0  0  0  0  0  0  0  0  0
    1.2612    1.5173    0.0000 C   0  0  0  0  0  0  0  0  0  0  0  0
   -2.3112    0.2798    0.0000 C   0  0  0  0  0  0  0  0  0  0  0  0
   -2.3112   -0.5452    0.0000 C   0  0  0  0  0  0  0  0  0  0  0  0
   -1.5967   -0.9577    0.0000 C   0  0  0  0  0  0  0  0  0  0  0  0
   -0.8822   -0.5452    0.0000 C   0  0  0  0  0  0  0  0  0  0  0  0
   -0.8822    0.2798    0.0000 C   0  0  0  0  0  0  0  0  0  0  0  0
   -1.5967    0.6923    0.0000 C   0  0  0  0  0  0  0  0  0  0  0  0
    0.5467   -3.0202    0.0000 N   0  0  0  0  0  0  0  0  0  0  0  0
    1.9756    1.9298    0.0000 Cl  0  0  0  0  0  0  0  0  0  0  0  0
    0.5467    2.7548    0.0000 O   0  5  0  0  0  0  0  0  0  0  0  0
    1.2612    3.1673    0.0000 H   0  0  0  0  0  0  0  0  0  0  0  0
 13 18  4  0  0  0  0
 13 14  4  0  0  0  0
 17 18  4  0  0  0  0
 14 15  4  0  0  0  0
 16 17  4  0  0  0  0
 15 16  4  0  0  0  0
  4 16  1  0  0  0  0
  4  5  4  0  0  0  0
  5  6  4  0  0  0  0
  6 19  1  0  0  0  0
  3  4  4  0  0  0  0
  1  6  4  0  0  0  0
  3 10  1  0  0  0  0
  2  3  4  0  0  0  0
  1  2  4  0  0  0  0
 10 11  4  0  0  0  0
  9 10  4  0  0  0  0
 11 12  4  0  0  0  0
  8  9  4  0  0  0  0
 12 20  1  0  0  0  0
  7 12  4  0  0  0  0
  7  8  4  0  0  0  0
  7 21  1  0  0  0  0
 21 22  1  0  0  0  0
M  CHG  1  21  -1
M  END
