@<TRIPOS>MOLECULE
B8L
 77 80 0 0 0
SMALL
GASTEIGER

@<TRIPOS>ATOM
      1 C           5.7870   42.2720   17.1510 C.3     1  UNL1        0.0728
      2 C           4.7240   42.3300   18.2860 C.3     1  UNL1        0.1228
      3 C           3.5760   43.3520   18.1510 C.3     1  UNL1       -0.0127
      4 C           2.9080   43.3140   16.7850 C.3     1  UNL1       -0.0370
      5 C           3.6080   44.2510   15.8030 C.3     1  UNL1       -0.0039
      6 N           4.9400   43.7790   15.4350 N.3     1  UNL1       -0.3141
      7 C           6.0320   43.5590   16.3710 C.3     1  UNL1        0.0178
      8 O           4.2100   40.9920   18.3500 O.3     1  UNL1       -0.4560
      9 C           4.7030   40.2010   19.4740 C.2     1  UNL1        0.3395
     10 O           4.3640   40.4750   20.6230 O.2     1  UNL1       -0.2450
     11 C           5.3490   38.9840   19.2550 C.ar    1  UNL1        0.0590
     12 C           4.6640   37.8810   18.7170 C.ar    1  UNL1       -0.0471
     13 C           5.3160   36.6590   18.5090 C.ar    1  UNL1       -0.0501
     14 C           6.6620   36.5060   18.8480 C.ar    1  UNL1        0.0224
     15 C           7.3430   37.6010   19.3880 C.ar    1  UNL1       -0.0501
     16 C           6.6900   38.8230   19.5970 C.ar    1  UNL1       -0.0471
     17 C           7.3270   35.2950   18.5930 C.2     1  UNL1        0.1967
     18 O           8.4900   35.3440   18.1750 O.2     1  UNL1       -0.2865
     19 C           6.7560   34.0400   18.8410 C.ar    1  UNL1        0.0671
     20 C           7.0980   33.4370   20.0510 C.ar    1  UNL1       -0.0056
     21 C           6.7220   32.1190   20.3530 C.ar    1  UNL1        0.1210
     22 C           6.0060   31.3610   19.4330 C.ar    1  UNL1       -0.0165
     23 C           5.6500   31.9390   18.2210 C.ar    1  UNL1       -0.0160
     24 C           6.0440   33.2510   17.9200 C.ar    1  UNL1        0.1279
     25 O           5.7190   33.8060   16.6270 O.3     1  UNL1       -0.5061
     26 O           7.1100   31.5160   21.6200 O.3     1  UNL1       -0.4951
     27 C           8.4470   31.3970   22.0370 C.3     1  UNL1        0.0788
     28 N           7.0940   41.8470   17.6410 N.am    1  UNL1       -0.3037
     29 C           7.9840   41.1780   16.8930 C.2     1  UNL1        0.2444
     30 O           7.6640   40.6050   15.8450 O.2     1  UNL1       -0.2702
     31 C           9.2740   41.0930   17.4550 C.ar    1  UNL1        0.0372
     32 C          10.1190   42.2190   17.4600 C.ar    1  UNL1       -0.0462
     33 C          11.3140   42.2360   18.1880 C.ar    1  UNL1       -0.0192
     34 C          11.6980   41.1080   18.9160 C.ar    1  UNL1        0.1203
     35 O          12.9520   41.1100   19.6340 O.3     1  UNL1       -0.5065
     36 C          10.8880   39.9700   18.9410 C.ar    1  UNL1       -0.0024
     37 C           9.6860   39.9720   18.2100 C.ar    1  UNL1       -0.0427
     38 C          11.3110   38.7810   19.7410 C.3     1  UNL1       -0.0155
     39 C          10.4160   38.6080   20.9630 C.3     1  UNL1       -0.0583
     40 C          11.3770   37.4990   18.8880 C.3     1  UNL1       -0.0492
     41 C          12.7910   37.2770   18.2930 C.3     1  UNL1       -0.0647
     42 H           5.3261   41.5436   16.4676 H       1  UNL1        0.0547
     43 H           5.2193   42.6933   19.1985 H       1  UNL1        0.0753
     44 H           2.8189   43.1329   18.9183 H       1  UNL1        0.0302
     45 H           4.0097   44.3548   18.2788 H       1  UNL1        0.0302
     46 H           2.9499   42.2870   16.3933 H       1  UNL1        0.0279
     47 H           1.8645   43.6432   16.8977 H       1  UNL1        0.0279
     48 H           2.9966   44.3283   14.8919 H       1  UNL1        0.0424
     49 H           3.7230   45.2276   16.2959 H       1  UNL1        0.0424
     50 H           4.7917   42.8734   14.9672 H       1  UNL1        0.1220
     51 H           6.9783   43.4762   15.8163 H       1  UNL1        0.0443
     52 H           6.0881   44.4052   17.0716 H       1  UNL1        0.0443
     53 H           3.6001   37.9789   18.4554 H       1  UNL1        0.0626
     54 H           4.7632   35.8128   18.0750 H       1  UNL1        0.0625
     55 H           8.4061   37.5019   19.6525 H       1  UNL1        0.0625
     56 H           7.2432   39.6660   20.0367 H       1  UNL1        0.0626
     57 H           7.6784   34.0101   20.7890 H       1  UNL1        0.0662
     58 H           5.7264   30.3218   19.6610 H       1  UNL1        0.0655
     59 H           5.0564   31.3651   17.4941 H       1  UNL1        0.0655
     60 H           5.9916   34.7309   16.4026 H       1  UNL1        0.2922
     61 H           8.4893   31.3932   23.1362 H       1  UNL1        0.0660
     62 H           8.8694   30.4577   21.6506 H       1  UNL1        0.0660
     63 H           9.0286   32.2469   21.6506 H       1  UNL1        0.0660
     64 H           7.3468   42.0729   18.6136 H       1  UNL1        0.1495
     65 H           9.8329   43.1071   16.8774 H       1  UNL1        0.0626
     66 H          11.9485   43.1346   18.1868 H       1  UNL1        0.0654
     67 H          13.2275   40.3121   20.1512 H       1  UNL1        0.2921
     68 H           9.0489   39.0755   18.2267 H       1  UNL1        0.0629
     69 H          12.3353   38.9661   20.0967 H       1  UNL1        0.0347
     70 H          11.0169   38.7242   21.8770 H       1  UNL1        0.0236
     71 H           9.6222   39.3693   20.9469 H       1  UNL1        0.0236
     72 H           9.9631   37.6057   20.9469 H       1  UNL1        0.0236
     73 H          11.1170   36.6369   19.5198 H       1  UNL1        0.0268
     74 H          10.6675   37.6056   18.0542 H       1  UNL1        0.0268
     75 H          13.5188   37.1627   19.1099 H       1  UNL1        0.0230
     76 H          12.7895   36.3681   17.6734 H       1  UNL1        0.0230
     77 H          13.0681   38.1426   17.6734 H       1  UNL1        0.0230
@<TRIPOS>BOND
     1     2     1    1
     2     3     2    1
     3     4     3    1
     4     5     4    1
     5     6     5    1
     6     7     6    1
     7     7     1    1
     8     8     2    1
     9     9     8    1
    10    10     9    2
    11    11     9    1
    12    12    11   ar
    13    13    12   ar
    14    14    13   ar
    15    15    14   ar
    16    16    11   ar
    17    16    15   ar
    18    17    14    1
    19    18    17    2
    20    19    17    1
    21    20    19   ar
    22    21    20   ar
    23    22    21   ar
    24    23    22   ar
    25    24    23   ar
    26    24    19   ar
    27    25    24    1
    28    26    21    1
    29    27    26    1
    30    28     1    1
    31    29    28   am
    32    30    29    2
    33    31    29    1
    34    32    31   ar
    35    33    32   ar
    36    34    33   ar
    37    35    34    1
    38    36    34   ar
    39    37    36   ar
    40    37    31   ar
    41    38    36    1
    42    39    38    1
    43    40    38    1
    44    41    40    1
    45     1    42    1
    46     2    43    1
    47     3    44    1
    48     3    45    1
    49     4    46    1
    50     4    47    1
    51     5    48    1
    52     5    49    1
    53     6    50    1
    54     7    51    1
    55     7    52    1
    56    12    53    1
    57    13    54    1
    58    15    55    1
    59    16    56    1
    60    20    57    1
    61    22    58    1
    62    23    59    1
    63    25    60    1
    64    27    61    1
    65    27    62    1
    66    27    63    1
    67    28    64    1
    68    32    65    1
    69    33    66    1
    70    35    67    1
    71    37    68    1
    72    38    69    1
    73    39    70    1
    74    39    71    1
    75    39    72    1
    76    40    73    1
    77    40    74    1
    78    41    75    1
    79    41    76    1
    80    41    77    1
