B8L
 OpenBabel10212217183D

 77 80  0  0  0  0  0  0  0  0999 V2000
    5.7870   42.2720   17.1510 C   0  0  1  0  0  0  0  0  0  0  0  0
    4.7240   42.3300   18.2860 C   0  0  1  0  0  0  0  0  0  0  0  0
    3.5760   43.3520   18.1510 C   0  0  0  0  0  0  0  0  0  0  0  0
    2.9080   43.3140   16.7850 C   0  0  0  0  0  0  0  0  0  0  0  0
    3.6080   44.2510   15.8030 C   0  0  0  0  0  0  0  0  0  0  0  0
    4.9400   43.7790   15.4350 N   0  0  0  0  0  0  0  0  0  0  0  0
    6.0320   43.5590   16.3710 C   0  0  0  0  0  0  0  0  0  0  0  0
    4.2100   40.9920   18.3500 O   0  0  0  0  0  0  0  0  0  0  0  0
    4.7030   40.2010   19.4740 C   0  0  0  0  0  0  0  0  0  0  0  0
    4.3640   40.4750   20.6230 O   0  0  0  0  0  0  0  0  0  0  0  0
    5.3490   38.9840   19.2550 C   0  0  0  0  0  0  0  0  0  0  0  0
    4.6640   37.8810   18.7170 C   0  0  0  0  0  0  0  0  0  0  0  0
    5.3160   36.6590   18.5090 C   0  0  0  0  0  0  0  0  0  0  0  0
    6.6620   36.5060   18.8480 C   0  0  0  0  0  0  0  0  0  0  0  0
    7.3430   37.6010   19.3880 C   0  0  0  0  0  0  0  0  0  0  0  0
    6.6900   38.8230   19.5970 C   0  0  0  0  0  0  0  0  0  0  0  0
    7.3270   35.2950   18.5930 C   0  0  0  0  0  0  0  0  0  0  0  0
    8.4900   35.3440   18.1750 O   0  0  0  0  0  0  0  0  0  0  0  0
    6.7560   34.0400   18.8410 C   0  0  0  0  0  0  0  0  0  0  0  0
    7.0980   33.4370   20.0510 C   0  0  0  0  0  0  0  0  0  0  0  0
    6.7220   32.1190   20.3530 C   0  0  0  0  0  0  0  0  0  0  0  0
    6.0060   31.3610   19.4330 C   0  0  0  0  0  0  0  0  0  0  0  0
    5.6500   31.9390   18.2210 C   0  0  0  0  0  0  0  0  0  0  0  0
    6.0440   33.2510   17.9200 C   0  0  0  0  0  0  0  0  0  0  0  0
    5.7190   33.8060   16.6270 O   0  0  0  0  0  0  0  0  0  0  0  0
    7.1100   31.5160   21.6200 O   0  0  0  0  0  0  0  0  0  0  0  0
    8.4470   31.3970   22.0370 C   0  0  0  0  0  0  0  0  0  0  0  0
    7.0940   41.8470   17.6410 N   0  0  0  0  0  0  0  0  0  0  0  0
    7.9840   41.1780   16.8930 C   0  0  0  0  0  0  0  0  0  0  0  0
    7.6640   40.6050   15.8450 O   0  0  0  0  0  0  0  0  0  0  0  0
    9.2740   41.0930   17.4550 C   0  0  0  0  0  0  0  0  0  0  0  0
   10.1190   42.2190   17.4600 C   0  0  0  0  0  0  0  0  0  0  0  0
   11.3140   42.2360   18.1880 C   0  0  0  0  0  0  0  0  0  0  0  0
   11.6980   41.1080   18.9160 C   0  0  0  0  0  0  0  0  0  0  0  0
   12.9520   41.1100   19.6340 O   0  0  0  0  0  0  0  0  0  0  0  0
   10.8880   39.9700   18.9410 C   0  0  0  0  0  0  0  0  0  0  0  0
    9.6860   39.9720   18.2100 C   0  0  0  0  0  0  0  0  0  0  0  0
   11.3110   38.7810   19.7410 C   0  0  1  0  0  0  0  0  0  0  0  0
   10.4160   38.6080   20.9630 C   0  0  0  0  0  0  0  0  0  0  0  0
   11.3770   37.4990   18.8880 C   0  0  0  0  0  0  0  0  0  0  0  0
   12.7910   37.2770   18.2930 C   0  0  0  0  0  0  0  0  0  0  0  0
    5.3261   41.5436   16.4676 H   0  0  0  0  0  0  0  0  0  0  0  0
    5.2193   42.6933   19.1985 H   0  0  0  0  0  0  0  0  0  0  0  0
    2.8189   43.1329   18.9183 H   0  0  0  0  0  0  0  0  0  0  0  0
    4.0097   44.3548   18.2788 H   0  0  0  0  0  0  0  0  0  0  0  0
    2.9499   42.2870   16.3933 H   0  0  0  0  0  0  0  0  0  0  0  0
    1.8645   43.6432   16.8977 H   0  0  0  0  0  0  0  0  0  0  0  0
    2.9966   44.3283   14.8919 H   0  0  0  0  0  0  0  0  0  0  0  0
    3.7230   45.2276   16.2959 H   0  0  0  0  0  0  0  0  0  0  0  0
    4.7917   42.8734   14.9672 H   0  0  0  0  0  0  0  0  0  0  0  0
    6.9783   43.4762   15.8163 H   0  0  0  0  0  0  0  0  0  0  0  0
    6.0881   44.4052   17.0716 H   0  0  0  0  0  0  0  0  0  0  0  0
    3.6001   37.9789   18.4554 H   0  0  0  0  0  0  0  0  0  0  0  0
    4.7632   35.8128   18.0750 H   0  0  0  0  0  0  0  0  0  0  0  0
    8.4061   37.5019   19.6525 H   0  0  0  0  0  0  0  0  0  0  0  0
    7.2432   39.6660   20.0367 H   0  0  0  0  0  0  0  0  0  0  0  0
    7.6784   34.0101   20.7890 H   0  0  0  0  0  0  0  0  0  0  0  0
    5.7264   30.3218   19.6610 H   0  0  0  0  0  0  0  0  0  0  0  0
    5.0564   31.3651   17.4941 H   0  0  0  0  0  0  0  0  0  0  0  0
    5.9916   34.7309   16.4026 H   0  0  0  0  0  0  0  0  0  0  0  0
    8.4893   31.3932   23.1362 H   0  0  0  0  0  0  0  0  0  0  0  0
    8.8694   30.4577   21.6506 H   0  0  0  0  0  0  0  0  0  0  0  0
    9.0286   32.2469   21.6506 H   0  0  0  0  0  0  0  0  0  0  0  0
    7.3468   42.0729   18.6136 H   0  0  0  0  0  0  0  0  0  0  0  0
    9.8329   43.1071   16.8774 H   0  0  0  0  0  0  0  0  0  0  0  0
   11.9485   43.1346   18.1868 H   0  0  0  0  0  0  0  0  0  0  0  0
   13.2275   40.3121   20.1512 H   0  0  0  0  0  0  0  0  0  0  0  0
    9.0489   39.0755   18.2267 H   0  0  0  0  0  0  0  0  0  0  0  0
   12.3353   38.9661   20.0967 H   0  0  0  0  0  0  0  0  0  0  0  0
   11.0169   38.7242   21.8770 H   0  0  0  0  0  0  0  0  0  0  0  0
    9.6222   39.3693   20.9469 H   0  0  0  0  0  0  0  0  0  0  0  0
    9.9631   37.6057   20.9469 H   0  0  0  0  0  0  0  0  0  0  0  0
   11.1170   36.6369   19.5198 H   0  0  0  0  0  0  0  0  0  0  0  0
   10.6675   37.6056   18.0542 H   0  0  0  0  0  0  0  0  0  0  0  0
   13.5188   37.1627   19.1099 H   0  0  0  0  0  0  0  0  0  0  0  0
   12.7895   36.3681   17.6734 H   0  0  0  0  0  0  0  0  0  0  0  0
   13.0681   38.1426   17.6734 H   0  0  0  0  0  0  0  0  0  0  0  0
  1 42  1  6  0  0  0
  2  1  1  0  0  0  0
  2 43  1  1  0  0  0
  3  2  1  0  0  0  0
  3 44  1  0  0  0  0
  3 45  1  0  0  0  0
  4  3  1  0  0  0  0
  4 46  1  0  0  0  0
  4 47  1  0  0  0  0
  5  4  1  0  0  0  0
  5 48  1  0  0  0  0
  5 49  1  0  0  0  0
  6  5  1  0  0  0  0
  6 50  1  0  0  0  0
  7  6  1  0  0  0  0
  7  1  1  0  0  0  0
  7 51  1  0  0  0  0
  7 52  1  0  0  0  0
  8  2  1  0  0  0  0
  9  8  1  0  0  0  0
 10  9  2  0  0  0  0
 11  9  1  0  0  0  0
 12 11  2  0  0  0  0
 12 53  1  0  0  0  0
 13 12  1  0  0  0  0
 13 54  1  0  0  0  0
 14 13  2  0  0  0  0
 15 14  1  0  0  0  0
 15 55  1  0  0  0  0
 16 11  1  0  0  0  0
 16 15  2  0  0  0  0
 16 56  1  0  0  0  0
 17 14  1  0  0  0  0
 18 17  2  0  0  0  0
 19 17  1  0  0  0  0
 20 19  2  0  0  0  0
 20 57  1  0  0  0  0
 21 20  1  0  0  0  0
 22 21  2  0  0  0  0
 22 58  1  0  0  0  0
 23 22  1  0  0  0  0
 23 59  1  0  0  0  0
 24 23  2  0  0  0  0
 24 19  1  0  0  0  0
 25 24  1  0  0  0  0
 25 60  1  0  0  0  0
 26 21  1  0  0  0  0
 27 26  1  0  0  0  0
 27 61  1  0  0  0  0
 27 62  1  0  0  0  0
 27 63  1  0  0  0  0
 28  1  1  0  0  0  0
 28 64  1  0  0  0  0
 29 28  1  0  0  0  0
 30 29  2  0  0  0  0
 31 29  1  0  0  0  0
 32 31  2  0  0  0  0
 32 65  1  0  0  0  0
 33 32  1  0  0  0  0
 33 66  1  0  0  0  0
 34 33  2  0  0  0  0
 35 34  1  0  0  0  0
 35 67  1  0  0  0  0
 36 34  1  0  0  0  0
 37 36  2  0  0  0  0
 37 31  1  0  0  0  0
 37 68  1  0  0  0  0
 38 36  1  0  0  0  0
 38 69  1  1  0  0  0
 39 38  1  0  0  0  0
 39 70  1  0  0  0  0
 39 71  1  0  0  0  0
 39 72  1  0  0  0  0
 40 38  1  0  0  0  0
 40 73  1  0  0  0  0
 40 74  1  0  0  0  0
 41 40  1  0  0  0  0
 41 75  1  0  0  0  0
 41 76  1  0  0  0  0
 41 77  1  0  0  0  0
M  END
$$$$
