@<TRIPOS>MOLECULE
311
 47 49 0 0 0
SMALL
GASTEIGER

@<TRIPOS>ATOM
      1 C          46.0040   63.1660   78.8850 C.ar    1  UNL1       -0.0576
      2 C          44.6870   63.5660   79.1760 C.ar    1  UNL1       -0.0356
      3 C          46.6620   62.2230   79.7300 C.ar    1  UNL1       -0.0311
      4 C          44.0040   63.0920   80.2880 C.ar    1  UNL1        0.0719
      5 C          45.9050   61.7370   80.7880 C.ar    1  UNL1        0.1262
      6 N          44.6110   62.1920   81.0990 N.ar    1  UNL1       -0.2421
      7 C          46.4620   60.7990   81.8070 C.2     1  UNL1        0.2650
      8 N          47.6000   61.1310   82.4710 N.am    1  UNL1       -0.2958
      9 C          48.3320   62.4520   82.3190 C.3     1  UNL1        0.0151
     10 C          48.2250   60.2250   83.4780 C.3     1  UNL1        0.0202
     11 C          49.7760   62.1620   81.8900 C.3     1  UNL1       -0.0366
     12 C          50.4340   61.3190   82.9590 C.3     1  UNL1       -0.0450
     13 C          49.7030   59.9650   83.0410 C.3     1  UNL1       -0.0190
     14 C          49.7380   59.3350   81.6160 C.3     1  UNL1       -0.0584
     15 C          50.4360   58.9600   83.9870 C.3     1  UNL1       -0.0584
     16 O          45.7880   59.7390   81.9880 O.2     1  UNL1       -0.2683
     17 C          42.5880   63.4730   80.7290 C.ar    1  UNL1        0.0031
     18 C          42.1660   64.3830   81.7810 C.ar    1  UNL1       -0.0521
     19 C          40.7910   64.6680   82.1530 C.ar    1  UNL1       -0.0555
     20 C          39.8240   63.9690   81.4020 C.ar    1  UNL1       -0.0152
     21 C          38.3030   64.0390   81.6110 C.3     1  UNL1       -0.0370
     22 C          40.2680   63.1190   80.4320 C.ar    1  UNL1        0.1269
     23 C          41.5480   62.8510   80.0790 C.ar    1  UNL1       -0.0170
     24 F          39.3720   62.4670   79.7760 F       1  UNL1       -0.2052
     25 H          46.5250   63.5790   78.0086 H       1  UNL1        0.0619
     26 H          44.1835   64.2753   78.5026 H       1  UNL1        0.0639
     27 H          47.6996   61.9024   79.5550 H       1  UNL1        0.0640
     28 H          47.8340   63.0663   81.5543 H       1  UNL1        0.0465
     29 H          48.3251   62.9987   83.2735 H       1  UNL1        0.0465
     30 H          48.2069   60.7001   84.4699 H       1  UNL1        0.0470
     31 H          47.6707   59.2766   83.5354 H       1  UNL1        0.0470
     32 H          49.7769   61.6167   80.9347 H       1  UNL1        0.0281
     33 H          50.3275   63.1050   81.7611 H       1  UNL1        0.0281
     34 H          51.4907   61.1540   82.7019 H       1  UNL1        0.0271
     35 H          50.3781   61.8341   83.9293 H       1  UNL1        0.0271
     36 H          49.7988   58.2399   81.7006 H       1  UNL1        0.0235
     37 H          48.8232   59.6104   81.0708 H       1  UNL1        0.0235
     38 H          50.6167   59.7100   81.0708 H       1  UNL1        0.0235
     39 H          50.2380   59.2314   85.0344 H       1  UNL1        0.0235
     40 H          50.0673   57.9413   83.7962 H       1  UNL1        0.0235
     41 H          51.5186   58.9998   83.7962 H       1  UNL1        0.0235
     42 H          42.9564   64.9007   82.3443 H       1  UNL1        0.0624
     43 H          40.5258   65.3720   82.9555 H       1  UNL1        0.0621
     44 H          38.0810   64.0492   82.6883 H       1  UNL1        0.0278
     45 H          37.9110   64.9561   81.1471 H       1  UNL1        0.0278
     46 H          37.8284   63.1617   81.1471 H       1  UNL1        0.0278
     47 H          41.7559   62.1344   79.2708 H       1  UNL1        0.0653
@<TRIPOS>BOND
     1     2     1   ar
     2     3     1   ar
     3     4     2   ar
     4     5     3   ar
     5     6     5   ar
     6     6     4   ar
     7     7     5    1
     8     8     7   am
     9     9     8    1
    10    10     8    1
    11    11     9    1
    12    12    11    1
    13    13    10    1
    14    13    12    1
    15    14    13    1
    16    15    13    1
    17    16     7    2
    18    17     4    1
    19    18    17   ar
    20    19    18   ar
    21    20    19   ar
    22    21    20    1
    23    22    20   ar
    24    23    22   ar
    25    23    17   ar
    26    24    22    1
    27     1    25    1
    28     2    26    1
    29     3    27    1
    30     9    28    1
    31     9    29    1
    32    10    30    1
    33    10    31    1
    34    11    32    1
    35    11    33    1
    36    12    34    1
    37    12    35    1
    38    14    36    1
    39    14    37    1
    40    14    38    1
    41    15    39    1
    42    15    40    1
    43    15    41    1
    44    18    42    1
    45    19    43    1
    46    21    44    1
    47    21    45    1
    48    21    46    1
    49    23    47    1
