311
 OpenBabel09072215083D

 47 49  0  0  0  0  0  0  0  0999 V2000
   46.0040   63.1660   78.8850 C   0  0  0  0  0  0  0  0  0  0  0  0
   44.6870   63.5660   79.1760 C   0  0  0  0  0  0  0  0  0  0  0  0
   46.6620   62.2230   79.7300 C   0  0  0  0  0  0  0  0  0  0  0  0
   44.0040   63.0920   80.2880 C   0  0  0  0  0  0  0  0  0  0  0  0
   45.9050   61.7370   80.7880 C   0  0  0  0  0  0  0  0  0  0  0  0
   44.6110   62.1920   81.0990 N   0  0  0  0  0  0  0  0  0  0  0  0
   46.4620   60.7990   81.8070 C   0  0  0  0  0  0  0  0  0  0  0  0
   47.6000   61.1310   82.4710 N   0  0  0  0  0  0  0  0  0  0  0  0
   48.3320   62.4520   82.3190 C   0  0  0  0  0  0  0  0  0  0  0  0
   48.2250   60.2250   83.4780 C   0  0  0  0  0  0  0  0  0  0  0  0
   49.7760   62.1620   81.8900 C   0  0  0  0  0  0  0  0  0  0  0  0
   50.4340   61.3190   82.9590 C   0  0  0  0  0  0  0  0  0  0  0  0
   49.7030   59.9650   83.0410 C   0  0  0  0  0  0  0  0  0  0  0  0
   49.7380   59.3350   81.6160 C   0  0  0  0  0  0  0  0  0  0  0  0
   50.4360   58.9600   83.9870 C   0  0  0  0  0  0  0  0  0  0  0  0
   45.7880   59.7390   81.9880 O   0  0  0  0  0  0  0  0  0  0  0  0
   42.5880   63.4730   80.7290 C   0  0  0  0  0  0  0  0  0  0  0  0
   42.1660   64.3830   81.7810 C   0  0  0  0  0  0  0  0  0  0  0  0
   40.7910   64.6680   82.1530 C   0  0  0  0  0  0  0  0  0  0  0  0
   39.8240   63.9690   81.4020 C   0  0  0  0  0  0  0  0  0  0  0  0
   38.3030   64.0390   81.6110 C   0  0  0  0  0  0  0  0  0  0  0  0
   40.2680   63.1190   80.4320 C   0  0  0  0  0  0  0  0  0  0  0  0
   41.5480   62.8510   80.0790 C   0  0  0  0  0  0  0  0  0  0  0  0
   39.3720   62.4670   79.7760 F   0  0  0  0  0  0  0  0  0  0  0  0
   46.5250   63.5790   78.0086 H   0  0  0  0  0  0  0  0  0  0  0  0
   44.1835   64.2753   78.5026 H   0  0  0  0  0  0  0  0  0  0  0  0
   47.6996   61.9024   79.5550 H   0  0  0  0  0  0  0  0  0  0  0  0
   47.8340   63.0663   81.5543 H   0  0  0  0  0  0  0  0  0  0  0  0
   48.3251   62.9987   83.2735 H   0  0  0  0  0  0  0  0  0  0  0  0
   48.2069   60.7001   84.4699 H   0  0  0  0  0  0  0  0  0  0  0  0
   47.6707   59.2766   83.5354 H   0  0  0  0  0  0  0  0  0  0  0  0
   49.7769   61.6167   80.9347 H   0  0  0  0  0  0  0  0  0  0  0  0
   50.3275   63.1050   81.7611 H   0  0  0  0  0  0  0  0  0  0  0  0
   51.4907   61.1540   82.7019 H   0  0  0  0  0  0  0  0  0  0  0  0
   50.3781   61.8341   83.9293 H   0  0  0  0  0  0  0  0  0  0  0  0
   49.7988   58.2399   81.7006 H   0  0  0  0  0  0  0  0  0  0  0  0
   48.8232   59.6104   81.0708 H   0  0  0  0  0  0  0  0  0  0  0  0
   50.6167   59.7100   81.0708 H   0  0  0  0  0  0  0  0  0  0  0  0
   50.2380   59.2314   85.0344 H   0  0  0  0  0  0  0  0  0  0  0  0
   50.0673   57.9413   83.7962 H   0  0  0  0  0  0  0  0  0  0  0  0
   51.5186   58.9998   83.7962 H   0  0  0  0  0  0  0  0  0  0  0  0
   42.9564   64.9007   82.3443 H   0  0  0  0  0  0  0  0  0  0  0  0
   40.5258   65.3720   82.9555 H   0  0  0  0  0  0  0  0  0  0  0  0
   38.0810   64.0492   82.6883 H   0  0  0  0  0  0  0  0  0  0  0  0
   37.9110   64.9561   81.1471 H   0  0  0  0  0  0  0  0  0  0  0  0
   37.8284   63.1617   81.1471 H   0  0  0  0  0  0  0  0  0  0  0  0
   41.7559   62.1344   79.2708 H   0  0  0  0  0  0  0  0  0  0  0  0
  1 25  1  0  0  0  0
  2  1  2  0  0  0  0
  2 26  1  0  0  0  0
  3  1  1  0  0  0  0
  3 27  1  0  0  0  0
  4  2  1  0  0  0  0
  5  3  2  0  0  0  0
  6  5  1  0  0  0  0
  6  4  2  0  0  0  0
  7  5  1  0  0  0  0
  8  7  1  0  0  0  0
  9  8  1  0  0  0  0
  9 28  1  0  0  0  0
  9 29  1  0  0  0  0
 10  8  1  0  0  0  0
 10 30  1  0  0  0  0
 10 31  1  0  0  0  0
 11  9  1  0  0  0  0
 11 32  1  0  0  0  0
 11 33  1  0  0  0  0
 12 11  1  0  0  0  0
 12 34  1  0  0  0  0
 12 35  1  0  0  0  0
 13 10  1  0  0  0  0
 13 12  1  0  0  0  0
 14 13  1  0  0  0  0
 14 36  1  0  0  0  0
 14 37  1  0  0  0  0
 14 38  1  0  0  0  0
 15 13  1  0  0  0  0
 15 39  1  0  0  0  0
 15 40  1  0  0  0  0
 15 41  1  0  0  0  0
 16  7  2  0  0  0  0
 17  4  1  0  0  0  0
 18 17  2  0  0  0  0
 18 42  1  0  0  0  0
 19 18  1  0  0  0  0
 19 43  1  0  0  0  0
 20 19  2  0  0  0  0
 21 20  1  0  0  0  0
 21 44  1  0  0  0  0
 21 45  1  0  0  0  0
 21 46  1  0  0  0  0
 22 20  1  0  0  0  0
 23 22  2  0  0  0  0
 23 17  1  0  0  0  0
 23 47  1  0  0  0  0
 24 22  1  0  0  0  0
M  END
$$$$
