@<TRIPOS>MOLECULE
JMZ
 27 29 0 0 0
SMALL
GASTEIGER

@<TRIPOS>ATOM
      1 C          45.3120   31.3770   24.4620 C.ar    1  UNL1       -0.0518
      2 C          45.5690   32.5080   25.2060 C.ar    1  UNL1       -0.0486
      3 C          43.4400   30.7280   25.7950 C.ar    1  UNL1       -0.0270
      4 C          44.2900   30.4910   24.7400 C.ar    1  UNL1        0.0025
      5 C          44.7220   32.7520   26.2760 C.ar    1  UNL1        0.0410
      6 C          43.6950   31.8640   26.5240 C.ar    1  UNL1        0.0682
      7 C          44.6040   33.7550   27.2800 C.ar    1  UNL1        0.1456
      8 N          45.4350   34.8240   27.3950 N.pl3   1  UNL1       -0.3413
      9 N          43.0430   32.3520   27.6170 N.ar    1  UNL1       -0.2752
     10 N          43.5760   33.4890   28.0900 N.ar    1  UNL1       -0.1581
     11 C          44.0830   29.3060   23.9360 C.ar    1  UNL1        0.0761
     12 C          44.2920   28.0560   24.4570 C.ar    1  UNL1       -0.0174
     13 C          44.1220   27.0010   23.5950 C.ar    1  UNL1        0.0332
     14 N          43.7620   27.1330   22.3180 N.ar    1  UNL1       -0.2231
     15 C          43.5750   28.3850   21.8950 C.ar    1  UNL1        0.2130
     16 N          43.1900   28.5290   20.5530 N.pl3   1  UNL1       -0.3275
     17 N          43.7290   29.4820   22.6550 N.ar    1  UNL1       -0.2147
     18 H          45.9582   31.1679   23.5967 H       1  UNL1        0.0624
     19 H          46.4033   33.1826   24.9634 H       1  UNL1        0.0625
     20 H          42.6085   30.0506   26.0396 H       1  UNL1        0.0645
     21 H          45.2888   35.5113   28.1481 H       1  UNL1        0.1438
     22 H          46.2110   34.9470   26.7290 H       1  UNL1        0.1438
     23 H          42.2225   31.8934   28.0381 H       1  UNL1        0.1890
     24 H          44.5801   27.9061   25.5080 H       1  UNL1        0.0654
     25 H          44.2932   25.9854   23.9813 H       1  UNL1        0.0831
     26 H          43.0288   29.4679   20.1614 H       1  UNL1        0.1452
     27 H          43.0686   27.6958   19.9598 H       1  UNL1        0.1452
@<TRIPOS>BOND
     1     2     1   ar
     2     4     3   ar
     3     4     1   ar
     4     5     2   ar
     5     6     3   ar
     6     6     5   ar
     7     7     5   ar
     8     8     7    1
     9     9     6   ar
    10    10     9   ar
    11    10     7   ar
    12    11     4    1
    13    12    11   ar
    14    13    12   ar
    15    14    13   ar
    16    15    14   ar
    17    16    15    1
    18    17    15   ar
    19    17    11   ar
    20     1    18    1
    21     2    19    1
    22     3    20    1
    23     8    21    1
    24     8    22    1
    25     9    23    1
    26    12    24    1
    27    13    25    1
    28    16    26    1
    29    16    27    1
