JMZ
 OpenBabel10052214083D

 27 29  0  0  0  0  0  0  0  0999 V2000
   45.3120   31.3770   24.4620 C   0  0  0  0  0  0  0  0  0  0  0  0
   45.5690   32.5080   25.2060 C   0  0  0  0  0  0  0  0  0  0  0  0
   43.4400   30.7280   25.7950 C   0  0  0  0  0  0  0  0  0  0  0  0
   44.2900   30.4910   24.7400 C   0  0  0  0  0  0  0  0  0  0  0  0
   44.7220   32.7520   26.2760 C   0  0  0  0  0  0  0  0  0  0  0  0
   43.6950   31.8640   26.5240 C   0  0  0  0  0  0  0  0  0  0  0  0
   44.6040   33.7550   27.2800 C   0  0  0  0  0  0  0  0  0  0  0  0
   45.4350   34.8240   27.3950 N   0  0  0  0  0  0  0  0  0  0  0  0
   43.0430   32.3520   27.6170 N   0  0  0  0  0  0  0  0  0  0  0  0
   43.5760   33.4890   28.0900 N   0  0  0  0  0  0  0  0  0  0  0  0
   44.0830   29.3060   23.9360 C   0  0  0  0  0  0  0  0  0  0  0  0
   44.2920   28.0560   24.4570 C   0  0  0  0  0  0  0  0  0  0  0  0
   44.1220   27.0010   23.5950 C   0  0  0  0  0  0  0  0  0  0  0  0
   43.7620   27.1330   22.3180 N   0  0  0  0  0  0  0  0  0  0  0  0
   43.5750   28.3850   21.8950 C   0  0  0  0  0  0  0  0  0  0  0  0
   43.1900   28.5290   20.5530 N   0  0  0  0  0  0  0  0  0  0  0  0
   43.7290   29.4820   22.6550 N   0  0  0  0  0  0  0  0  0  0  0  0
   45.9582   31.1679   23.5967 H   0  0  0  0  0  0  0  0  0  0  0  0
   46.4033   33.1826   24.9634 H   0  0  0  0  0  0  0  0  0  0  0  0
   42.6085   30.0506   26.0396 H   0  0  0  0  0  0  0  0  0  0  0  0
   45.2888   35.5113   28.1481 H   0  0  0  0  0  0  0  0  0  0  0  0
   46.2110   34.9470   26.7290 H   0  0  0  0  0  0  0  0  0  0  0  0
   42.2225   31.8934   28.0381 H   0  0  0  0  0  0  0  0  0  0  0  0
   44.5801   27.9061   25.5080 H   0  0  0  0  0  0  0  0  0  0  0  0
   44.2932   25.9854   23.9813 H   0  0  0  0  0  0  0  0  0  0  0  0
   43.0288   29.4679   20.1614 H   0  0  0  0  0  0  0  0  0  0  0  0
   43.0686   27.6958   19.9598 H   0  0  0  0  0  0  0  0  0  0  0  0
  1 18  1  0  0  0  0
  2  1  2  0  0  0  0
  2 19  1  0  0  0  0
  3 20  1  0  0  0  0
  4  3  2  0  0  0  0
  4  1  1  0  0  0  0
  5  2  1  0  0  0  0
  6  3  1  0  0  0  0
  6  5  2  0  0  0  0
  7  5  1  0  0  0  0
  8  7  1  0  0  0  0
  8 21  1  0  0  0  0
  8 22  1  0  0  0  0
  9  6  1  0  0  0  0
  9 23  1  0  0  0  0
 10  9  1  0  0  0  0
 10  7  2  0  0  0  0
 11  4  1  0  0  0  0
 12 11  2  0  0  0  0
 12 24  1  0  0  0  0
 13 12  1  0  0  0  0
 13 25  1  0  0  0  0
 14 13  2  0  0  0  0
 15 14  1  0  0  0  0
 16 15  1  0  0  0  0
 16 26  1  0  0  0  0
 16 27  1  0  0  0  0
 17 15  2  0  0  0  0
 17 11  1  0  0  0  0
M  END
$$$$
