@<TRIPOS>MOLECULE
596
 51 55 0 0 0
SMALL
GASTEIGER

@<TRIPOS>ATOM
      1 C         170.7900 -123.1600    4.3840 C.ar    1  UNL1        0.0511
      2 C         170.4170 -123.3890    3.0550 C.ar    1  UNL1        0.1474
      3 C         170.1460 -124.6700    2.5830 C.ar    1  UNL1        0.0681
      4 C         170.2530 -125.7820    3.3860 C.ar    1  UNL1       -0.0438
      5 C         170.6190 -125.5680    4.7080 C.ar    1  UNL1       -0.0187
      6 C         170.8930 -124.2900    5.2100 C.ar    1  UNL1        0.1280
      7 O         170.2540 -122.3820    2.0700 O.3     1  UNL1       -0.4509
      8 C         169.8920 -122.9850    0.9020 C.2     1  UNL1        0.1777
      9 C         169.8040 -124.4260    1.1590 C.2     1  UNL1        0.2315
     10 O         169.4730 -125.2830    0.2500 O.2     1  UNL1       -0.2832
     11 C         169.6360 -122.2840   -0.3700 C.2     1  UNL1        0.0122
     12 C         169.1520 -120.9080   -0.6290 C.ar    1  UNL1        0.0967
     13 N         168.3740 -120.6970   -1.7050 N.ar    1  UNL1       -0.1732
     14 N         168.0620 -119.3330   -1.6780 N.ar    1  UNL1       -0.2764
     15 C         168.6530 -118.7220   -0.6260 C.ar    1  UNL1        0.0663
     16 C         169.3760 -119.6540    0.1020 C.ar    1  UNL1        0.0269
     17 C         168.6280 -117.3990   -0.1980 C.ar    1  UNL1       -0.0363
     18 C         170.0710 -119.3300    1.2590 C.ar    1  UNL1       -0.0505
     19 C         170.0460 -118.0100    1.6830 C.ar    1  UNL1       -0.0610
     20 C         169.3270 -117.0510    0.9600 C.ar    1  UNL1       -0.0597
     21 C         171.0530 -121.7370    4.8970 C.3     1  UNL1        0.0311
     22 N         169.9630 -121.2150    5.7710 N.3     1  UNL1       -0.2955
     23 C         169.1510 -120.1970    5.0820 C.3     1  UNL1        0.0118
     24 C         167.9860 -119.7110    5.9650 C.3     1  UNL1        0.0087
     25 N         168.4370 -119.3750    7.3200 N.3     1  UNL1       -0.3136
     26 C         169.3270 -120.3170    7.9670 C.3     1  UNL1        0.0087
     27 C         170.4830 -120.6830    7.0400 C.3     1  UNL1        0.0118
     28 O         171.2590 -124.1490    6.5300 O.3     1  UNL1       -0.4947
     29 C         170.3730 -124.4230    7.6400 C.3     1  UNL1        0.0788
     30 H         170.0578 -126.7929    2.9988 H       1  UNL1        0.0627
     31 H         170.6964 -126.4321    5.3842 H       1  UNL1        0.0654
     32 H         169.8370 -122.8794   -1.2728 H       1  UNL1        0.0678
     33 H         167.4622 -118.8577   -2.3674 H       1  UNL1        0.1889
     34 H         168.0670 -116.6393   -0.7621 H       1  UNL1        0.0639
     35 H         170.6242 -120.0963    1.8219 H       1  UNL1        0.0625
     36 H         170.5931 -117.7155    2.5907 H       1  UNL1        0.0618
     37 H         169.3123 -116.0079    1.3090 H       1  UNL1        0.0618
     38 H         171.9905 -121.7408    5.4724 H       1  UNL1        0.0478
     39 H         171.1096 -121.0785    4.0177 H       1  UNL1        0.0478
     40 H         169.7916 -119.3386    4.8312 H       1  UNL1        0.0439
     41 H         168.7290 -120.6498    4.1727 H       1  UNL1        0.0439
     42 H         167.5393 -118.8168    5.5058 H       1  UNL1        0.0437
     43 H         167.2495 -120.5246    6.0401 H       1  UNL1        0.0437
     44 H         168.9255 -118.4696    7.2698 H       1  UNL1        0.1220
     45 H         169.7288 -119.8635    8.8851 H       1  UNL1        0.0437
     46 H         168.7633 -121.2297    8.2103 H       1  UNL1        0.0437
     47 H         171.0862 -119.7855    6.8385 H       1  UNL1        0.0439
     48 H         171.1047 -121.4501    7.5247 H       1  UNL1        0.0439
     49 H         170.9087 -124.2573    8.5863 H       1  UNL1        0.0660
     50 H         169.5029 -123.7520    7.5889 H       1  UNL1        0.0660
     51 H         170.0336 -125.4681    7.5889 H       1  UNL1        0.0660
@<TRIPOS>BOND
     1     2     1   ar
     2     3     2   ar
     3     4     3   ar
     4     5     4   ar
     5     6     5   ar
     6     6     1   ar
     7     7     2    1
     8     8     7    1
     9     9     8    1
    10     9     3    1
    11    10     9    2
    12    11     8    2
    13    12    11    1
    14    13    12   ar
    15    14    13   ar
    16    15    14   ar
    17    16    15   ar
    18    16    12   ar
    19    17    15   ar
    20    18    16   ar
    21    19    18   ar
    22    20    17   ar
    23    20    19   ar
    24    21     1    1
    25    22    21    1
    26    23    22    1
    27    24    23    1
    28    25    24    1
    29    26    25    1
    30    27    26    1
    31    27    22    1
    32    28     6    1
    33    29    28    1
    34     4    30    1
    35     5    31    1
    36    11    32    1
    37    14    33    1
    38    17    34    1
    39    18    35    1
    40    19    36    1
    41    20    37    1
    42    21    38    1
    43    21    39    1
    44    23    40    1
    45    23    41    1
    46    24    42    1
    47    24    43    1
    48    25    44    1
    49    26    45    1
    50    26    46    1
    51    27    47    1
    52    27    48    1
    53    29    49    1
    54    29    50    1
    55    29    51    1
