62P
  Mrv15b2303062314222D          

 21 23  0  0  0  0            999 V2000
   -1.9527    0.8406    0.0000 C   0  0  0  0  0  0  0  0  0  0  0  0
   -1.5402    0.1261    0.0000 C   0  0  0  0  0  0  0  0  0  0  0  0
   -0.7152    0.1261    0.0000 S   0  0  0  0  0  0  0  0  0  0  0  0
   -0.7152    0.9511    0.0000 O   0  0  0  0  0  0  0  0  0  0  0  0
   -0.7152   -0.6989    0.0000 O   0  0  0  0  0  0  0  0  0  0  0  0
    0.1098    0.1261    0.0000 C   0  0  0  0  0  0  0  0  0  0  0  0
    0.5947    0.7936    0.0000 O   0  0  0  0  0  0  0  0  0  0  0  0
    1.3793    0.5386    0.0000 C   0  0  0  0  0  0  0  0  0  0  0  0
    2.0938    0.9511    0.0000 C   0  0  0  0  0  0  0  0  0  0  0  0
    2.8082    0.5386    0.0000 C   0  0  0  0  0  0  0  0  0  0  0  0
    2.8082   -0.2864    0.0000 C   0  0  0  0  0  0  0  0  0  0  0  0
    3.5227   -0.6989    0.0000 Cl  0  0  0  0  0  0  0  0  0  0  0  0
    2.0938   -0.6989    0.0000 C   0  0  0  0  0  0  0  0  0  0  0  0
    1.3793   -0.2864    0.0000 C   0  0  0  0  0  0  0  0  0  0  0  0
    0.5947   -0.5413    0.0000 C   0  0  0  0  0  0  0  0  0  0  0  0
    0.3397   -1.3259    0.0000 C   0  0  0  0  0  0  0  0  0  0  0  0
   -1.9527   -0.5883    0.0000 N   0  0  0  0  0  0  0  0  0  0  0  0
   -2.7777   -0.5883    0.0000 N   0  0  0  0  0  0  0  0  0  0  0  0
   -3.1902    0.1261    0.0000 C   0  0  0  0  0  0  0  0  0  0  0  0
   -4.0152    0.1261    0.0000 O   0  0  0  0  0  0  0  0  0  0  0  0
   -2.7777    0.8406    0.0000 C   0  0  0  0  0  0  0  0  0  0  0  0
  1  2  4  0  0  0  0
  1 21  4  0  0  0  0
  2  3  1  0  0  0  0
  2 17  4  0  0  0  0
  3  4  2  0  0  0  0
  3  5  2  0  0  0  0
  3  6  1  0  0  0  0
  6  7  4  0  0  0  0
  6 15  4  0  0  0  0
  7  8  4  0  0  0  0
  8  9  4  0  0  0  0
  8 14  4  0  0  0  0
  9 10  4  0  0  0  0
 10 11  4  0  0  0  0
 11 12  1  0  0  0  0
 11 13  4  0  0  0  0
 13 14  4  0  0  0  0
 14 15  4  0  0  0  0
 15 16  1  0  0  0  0
 17 18  4  0  0  0  0
 18 19  4  0  0  0  0
 19 20  2  0  0  0  0
 19 21  4  0  0  0  0
M  STY  1   1 DAT
M  SAL   1  1  18
M  SDT   1 MRV_IMPLICIT_H                                        
M  SDD   1     0.0000    0.0000    DR    ALL  0       0  
M  SED   1 IMPL_H1
M  END
