62P
  -OEChem-02242319223D

 30 32  0     0  0  0  0  0  0999 V2000
   -2.9490    0.4800    1.2270 C   0  0  0  0  0  0  0  0  0  0  0  0
   -2.6960   -0.2190    0.0360 C   0  0  0  0  0  0  0  0  0  0  0  0
   -1.6130   -1.6090    0.0500 S   0  0  0  0  0  0  0  0  0  0  0  0
   -1.6870   -2.1430    1.3650 O   0  0  0  0  0  0  0  0  0  0  0  0
   -1.8890   -2.3260   -1.1450 O   0  0  0  0  0  0  0  0  0  0  0  0
    0.0300   -0.9980   -0.1260 C   0  0  0  0  0  0  0  0  0  0  0  0
    0.6600   -0.8110   -1.2990 O   0  0  0  0  0  0  0  0  0  0  0  0
    1.9060   -0.3340   -1.1050 C   0  0  0  0  0  0  0  0  0  0  0  0
    2.9400    0.0130   -1.9660 C   0  0  0  0  0  0  0  0  0  0  0  0
    4.1310    0.4840   -1.4560 C   0  0  0  0  0  0  0  0  0  0  0  0
    4.3130    0.6170   -0.0870 C   0  0  0  0  0  0  0  0  0  0  0  0
    5.8220    1.2110    0.5320 Cl  0  0  0  0  0  0  0  0  0  0  0  0
    3.2990    0.2780    0.7840 C   0  0  0  0  0  0  0  0  0  0  0  0
    2.0900   -0.1990    0.2810 C   0  0  0  0  0  0  0  0  0  0  0  0
    0.8300   -0.6440    0.8890 C   0  0  0  0  0  0  0  0  0  0  0  0
    0.5040   -0.6970    2.3590 C   0  0  0  0  0  0  0  0  0  0  0  0
   -3.2620    0.1490   -1.0800 N   0  0  0  0  0  0  0  0  0  0  0  0
   -4.0590    1.1530   -1.1490 N   0  0  0  0  0  0  0  0  0  0  0  0
   -4.3620    1.8920   -0.0650 C   0  0  0  0  0  0  0  0  0  0  0  0
   -5.1240    2.8410   -0.1580 O   0  0  0  0  0  0  0  0  0  0  0  0
   -3.7900    1.5560    1.1810 C   0  0  0  0  0  0  0  0  0  0  0  0
   -2.4850    0.1800    2.1550 H   0  0  0  0  0  0  0  0  0  0  0  0
    2.8100   -0.0860   -3.0330 H   0  0  0  0  0  0  0  0  0  0  0  0
    4.9320    0.7520   -2.1300 H   0  0  0  0  0  0  0  0  0  0  0  0
    3.4410    0.3820    1.8500 H   0  0  0  0  0  0  0  0  0  0  0  0
    0.0640    0.2510    2.6680 H   0  0  0  0  0  0  0  0  0  0  0  0
   -0.2050   -1.5040    2.5450 H   0  0  0  0  0  0  0  0  0  0  0  0
    1.4160   -0.8770    2.9270 H   0  0  0  0  0  0  0  0  0  0  0  0
   -4.4540    1.3850   -2.0050 H   0  0  0  0  0  0  0  0  0  0  0  0
   -4.0120    2.1290    2.0700 H   0  0  0  0  0  0  0  0  0  0  0  0
  1  2  1  0  0  0  0
  1 21  2  0  0  0  0
  1 22  1  0  0  0  0
  2  3  1  0  0  0  0
  2 17  2  0  0  0  0
  3  4  2  0  0  0  0
  3  5  2  0  0  0  0
  3  6  1  0  0  0  0
  6  7  1  0  0  0  0
  6 15  2  0  0  0  0
  7  8  1  0  0  0  0
  8  9  2  0  0  0  0
  8 14  1  0  0  0  0
  9 10  1  0  0  0  0
  9 23  1  0  0  0  0
 10 11  2  0  0  0  0
 10 24  1  0  0  0  0
 11 12  1  0  0  0  0
 11 13  1  0  0  0  0
 13 14  2  0  0  0  0
 13 25  1  0  0  0  0
 14 15  1  0  0  0  0
 15 16  1  0  0  0  0
 16 26  1  0  0  0  0
 16 27  1  0  0  0  0
 16 28  1  0  0  0  0
 17 18  1  0  0  0  0
 18 19  1  0  0  0  0
 18 29  1  0  0  0  0
 19 20  2  0  0  0  0
 19 21  1  0  0  0  0
 21 30  1  0  0  0  0
M  END
> <OPENEYE_ISO_SMILES>
Cc1c2cc(ccc2oc1S(=O)(=O)c3ccc(=O)[nH]n3)Cl

> <OPENEYE_INCHI>
InChI=1S/C13H9ClN2O4S/c1-7-9-6-8(14)2-3-10(9)20-13(7)21(18,19)12-5-4-11(17)15-16-12/h2-6H,1H3,(H,15,17)

> <OPENEYE_INCHIKEY>
FXFPQPNUMWQRAO-UHFFFAOYSA-N

> <FORMULA>
C13H9ClN2O4S

$$$$
