@<TRIPOS>MOLECULE
62P
 30 32 0 0 0
SMALL
GASTEIGER

@<TRIPOS>ATOM
      1 C          -2.9490    0.4800    1.2270 C.ar    1  LIG1       -0.0107
      2 C          -2.6960   -0.2190    0.0360 C.ar    1  LIG1        0.2050
      3 S          -1.6130   -1.6090    0.0500 S.O2    1  LIG1        0.0765
      4 O          -1.6870   -2.1430    1.3650 O.2     1  LIG1       -0.1598
      5 O          -1.8890   -2.3260   -1.1450 O.2     1  LIG1       -0.1598
      6 C           0.0300   -0.9980   -0.1260 C.ar    1  LIG1        0.2516
      7 O           0.6600   -0.8110   -1.2990 O.2     1  LIG1       -0.4372
      8 C           1.9060   -0.3340   -1.1050 C.ar    1  LIG1        0.1378
      9 C           2.9400    0.0130   -1.9660 C.ar    1  LIG1       -0.0173
     10 C           4.1310    0.4840   -1.4560 C.ar    1  LIG1       -0.0399
     11 C           4.3130    0.6170   -0.0870 C.ar    1  LIG1        0.0418
     12 CL          5.8220    1.2110    0.5320 Cl      1  LIG1       -0.0835
     13 C           3.2990    0.2780    0.7840 C.ar    1  LIG1       -0.0323
     14 C           2.0900   -0.1990    0.2810 C.ar    1  LIG1        0.0264
     15 C           0.8300   -0.6440    0.8890 C.ar    1  LIG1        0.0216
     16 C           0.5040   -0.6970    2.3590 C.3     1  LIG1       -0.0342
     17 N          -3.2620    0.1490   -1.0800 N.ar    1  LIG1       -0.1517
     18 N          -4.0590    1.1530   -1.1490 N.ar    1  LIG1       -0.2414
     19 C          -4.3620    1.8920   -0.0650 C.ar    1  LIG1        0.2648
     20 O          -5.1240    2.8410   -0.1580 O.2     1  LIG1       -0.2664
     21 C          -3.7900    1.5560    1.1810 C.ar    1  LIG1        0.0075
     22 H          -2.4850    0.1800    2.1550 H       1  LIG1        0.0655
     23 H           2.8100   -0.0860   -3.0330 H       1  LIG1        0.0655
     24 H           4.9320    0.7520   -2.1300 H       1  LIG1        0.0633
     25 H           3.4410    0.3820    1.8500 H       1  LIG1        0.0639
     26 H           0.0640    0.2510    2.6680 H       1  LIG1        0.0279
     27 H          -0.2050   -1.5040    2.5450 H       1  LIG1        0.0279
     28 H           1.4160   -0.8770    2.9270 H       1  LIG1        0.0279
     29 H          -4.4540    1.3850   -2.0050 H       1  LIG1        0.1922
     30 H          -4.0120    2.1290    2.0700 H       1  LIG1        0.0673
@<TRIPOS>BOND
     1     1     2   ar
     2     1    21   ar
     3     1    22    1
     4     2     3    1
     5     2    17   ar
     6     3     4    2
     7     3     5    2
     8     3     6    1
     9     6     7   ar
    10     6    15   ar
    11     7     8   ar
    12     8     9   ar
    13     8    14   ar
    14     9    10   ar
    15     9    23    1
    16    10    11   ar
    17    10    24    1
    18    11    12    1
    19    11    13   ar
    20    13    14   ar
    21    13    25    1
    22    14    15   ar
    23    15    16    1
    24    16    26    1
    25    16    27    1
    26    16    28    1
    27    17    18   ar
    28    18    19   ar
    29    18    29    1
    30    19    20    2
    31    19    21   ar
    32    21    30    1
