@<TRIPOS>MOLECULE
134
 52 55 0 0 0
SMALL
GASTEIGER

@<TRIPOS>ATOM
      1 C           9.8040    7.6190   22.9220 C.ar    1  UNL1       -0.0285
      2 C           6.1770    8.3730   23.4230 C.ar    1  UNL1        0.1677
      3 O           6.2300    9.6900   22.9660 O.3     1  UNL1       -0.5029
      4 C           5.0320    7.8170   23.8720 C.ar    1  UNL1        0.1628
      5 C           4.9010    6.5490   24.3420 C.ar    1  UNL1       -0.0162
      6 C           6.0110    5.7580   24.3230 C.ar    1  UNL1       -0.0575
      7 C           7.2230    6.2700   23.8690 C.ar    1  UNL1       -0.0489
      8 C           7.3310    7.6010   23.4080 C.ar    1  UNL1        0.0434
      9 C          12.6700    9.3880   21.3590 C.ar    1  UNL1        0.1004
     10 C          11.8580   10.5340   21.0230 C.ar    1  UNL1        0.1402
     11 C          10.4880   10.5720   21.3290 C.ar    1  UNL1       -0.0017
     12 N           8.7160    9.2650   22.3710 N.ar    1  UNL1       -0.3540
     13 C           9.9490    9.4740   21.9330 C.ar    1  UNL1        0.0497
     14 C          10.6630    8.4060   22.3190 C.ar    1  UNL1        0.0012
     15 C          12.0020    8.3270   22.0390 C.ar    1  UNL1       -0.0349
     16 C           8.5630    8.0760   22.9340 C.ar    1  UNL1        0.0511
     17 F          12.4390   11.6190   20.3700 F       1  UNL1       -0.2045
     18 O           3.8690    8.5940   23.8450 O.3     1  UNL1       -0.4849
     19 C           2.9600    9.4100   24.6930 C.3     1  UNL1        0.1029
     20 C           3.7860    9.2230   25.9140 C.3     1  UNL1       -0.0155
     21 C           2.8890    9.6480   27.0470 C.3     1  UNL1       -0.0497
     22 C           1.9020   10.7330   26.4760 C.3     1  UNL1       -0.0526
     23 C           2.4720   11.6180   25.3220 C.3     1  UNL1       -0.0471
     24 C           2.9900   10.7830   24.1480 C.3     1  UNL1       -0.0068
     25 C           2.0570   10.9770   22.9800 C.3     1  UNL1       -0.0591
     26 C          14.0450    9.3050   21.0870 C.2     1  UNL1        0.3109
     27 N          14.4510    8.7320   19.9790 N.2     1  UNL1       -0.0993
     28 N          14.9160    9.8100   21.9460 N.pl3   1  UNL1       -0.2466
     29 H          10.0914    6.6605   23.3788 H       1  UNL1        0.0645
     30 H           7.0862   10.0678   22.6431 H       1  UNL1        0.2923
     31 H           3.9386    6.1760   24.7223 H       1  UNL1        0.0655
     32 H           5.9488    4.7149   24.6665 H       1  UNL1        0.0619
     33 H           8.1144    5.6255   23.8692 H       1  UNL1        0.0625
     34 H           9.8735   11.4527   21.0910 H       1  UNL1        0.0667
     35 H           7.9562    9.9549   22.2829 H       1  UNL1        0.1659
     36 H          12.5687    7.4344   22.3424 H       1  UNL1        0.0633
     37 H           1.8895    9.1804   24.7989 H       1  UNL1        0.0735
     38 H           4.0807    8.1691   26.0261 H       1  UNL1        0.0301
     39 H           4.7194    9.8041   25.8798 H       1  UNL1        0.0301
     40 H           2.3223    8.7838   27.4238 H       1  UNL1        0.0266
     41 H           3.4791   10.0565   27.8806 H       1  UNL1        0.0266
     42 H           1.0100   10.2135   26.0960 H       1  UNL1        0.0265
     43 H           1.6929   11.4201   27.3092 H       1  UNL1        0.0265
     44 H           1.6737   12.2817   24.9584 H       1  UNL1        0.0269
     45 H           3.3196   12.1910   25.7260 H       1  UNL1        0.0269
     46 H           3.9923   11.0446   23.7780 H       1  UNL1        0.0334
     47 H           1.0433   11.1878   23.3515 H       1  UNL1        0.0234
     48 H           2.4063   11.8217   22.3681 H       1  UNL1        0.0234
     49 H           2.0406   10.0631   22.3681 H       1  UNL1        0.0234
     50 H          15.4579    8.6670   19.7718 H       1  UNL1        0.3633
     51 H          15.9255    9.7513   21.7504 H       1  UNL1        0.2884
     52 H          14.5843   10.2618   22.8102 H       1  UNL1        0.2884
@<TRIPOS>BOND
     1     3     2    1
     2     4     2   ar
     3     5     4   ar
     4     6     5   ar
     5     7     6   ar
     6     8     7   ar
     7     8     2   ar
     8    10     9   ar
     9    11    10   ar
    10    13    11   ar
    11    13    12   ar
    12    14    13   ar
    13    14     1   ar
    14    15    14   ar
    15    15     9   ar
    16    16    12   ar
    17    16     8    1
    18    16     1   ar
    19    17    10    1
    20    18     4    1
    21    19    18    1
    22    20    19    1
    23    21    20    1
    24    22    21    1
    25    23    22    1
    26    24    19    1
    27    24    23    1
    28    25    24    1
    29    26     9    1
    30    27    26    2
    31    28    26    1
    32     1    29    1
    33     3    30    1
    34     5    31    1
    35     6    32    1
    36     7    33    1
    37    11    34    1
    38    12    35    1
    39    15    36    1
    40    19    37    1
    41    20    38    1
    42    20    39    1
    43    21    40    1
    44    21    41    1
    45    22    42    1
    46    22    43    1
    47    23    44    1
    48    23    45    1
    49    24    46    1
    50    25    47    1
    51    25    48    1
    52    25    49    1
    53    27    50    1
    54    28    51    1
    55    28    52    1
