@<TRIPOS>MOLECULE
L09
 50 52 0 0 0
SMALL
GASTEIGER

@<TRIPOS>ATOM
      1 CL         -3.9680    0.0980   25.2910 Cl      1  UNL1       -0.0831
      2 C          -4.7680    4.5510   24.4740 C.ar    1  UNL1        0.0352
      3 C          -5.6900    3.7260   25.2090 C.ar    1  UNL1       -0.0390
      4 C          -5.4290    2.3630   25.4410 C.ar    1  UNL1       -0.0413
      5 C          -4.2070    1.7780   24.9470 C.ar    1  UNL1        0.0475
      6 C          -3.2630    2.5760   24.2030 C.ar    1  UNL1        0.0097
      7 C          -3.5360    3.9640   23.9750 C.ar    1  UNL1       -0.0326
      8 N          -5.1400    5.9240   24.3300 N.am    1  UNL1       -0.2692
      9 C          -5.0610    6.9300   25.2660 C.2     1  UNL1        0.3092
     10 N          -5.4670    8.1900   24.8560 N.am    1  UNL1       -0.2543
     11 O          -4.6840    6.6990   26.3990 O.2     1  UNL1       -0.2521
     12 C          -5.3230    9.4170   25.5780 C.ar    1  UNL1        0.1217
     13 C          -4.3380   10.3920   25.4820 C.ar    1  UNL1        0.0015
     14 C          -4.6240   11.3660   26.4060 C.ar    1  UNL1        0.0700
     15 N          -5.7480   10.9940   27.0440 N.ar    1  UNL1       -0.1767
     16 N          -6.1610    9.7890   26.5150 N.ar    1  UNL1       -0.2636
     17 C          -3.8390   12.6640   26.6690 C.3     1  UNL1        0.0063
     18 C          -3.9840   13.6630   25.4990 C.3     1  UNL1       -0.0546
     19 C          -2.3540   12.3660   26.8970 C.3     1  UNL1       -0.0546
     20 C          -4.4150   13.3430   27.9550 C.3     1  UNL1       -0.0546
     21 C          -1.9530    1.9930   23.6690 C.3     1  UNL1        0.1161
     22 O          -1.6370    2.7030   22.4520 O.3     1  UNL1       -0.4858
     23 C          -0.2930    2.9640   22.2520 C.ar    1  UNL1        0.1390
     24 C           0.5780    2.8400   23.3890 C.ar    1  UNL1       -0.0170
     25 C           1.9860    3.0900   23.2630 C.ar    1  UNL1       -0.0401
     26 C           2.4900    3.4540   22.0010 C.ar    1  UNL1        0.0278
     27 N           1.6540    3.5690   20.9210 N.ar    1  UNL1       -0.2596
     28 C           0.3130    3.3440   20.9850 C.ar    1  UNL1        0.0692
     29 H          -6.6182    4.1703   25.5976 H       1  UNL1        0.0636
     30 H          -6.1525    1.7475   25.9957 H       1  UNL1        0.0633
     31 H          -2.8142    4.5841   23.4232 H       1  UNL1        0.0640
     32 H          -5.5145    6.1945   23.4094 H       1  UNL1        0.1564
     33 H          -5.9208    8.2496   23.9333 H       1  UNL1        0.1578
     34 H          -3.4829   10.3848   24.7901 H       1  UNL1        0.0670
     35 H          -6.9966    9.2639   26.8098 H       1  UNL1        0.1903
     36 H          -4.1312   14.6771   25.8989 H       1  UNL1        0.0239
     37 H          -3.0732   13.6405   24.8826 H       1  UNL1        0.0239
     38 H          -4.8508   13.3825   24.8826 H       1  UNL1        0.0239
     39 H          -2.1499   12.3250   27.9771 H       1  UNL1        0.0239
     40 H          -2.0995   11.3989   26.4388 H       1  UNL1        0.0239
     41 H          -1.7461   13.1601   26.4388 H       1  UNL1        0.0239
     42 H          -3.9984   12.8519   28.8468 H       1  UNL1        0.0239
     43 H          -4.1409   14.4083   27.9613 H       1  UNL1        0.0239
     44 H          -5.5107   13.2463   27.9613 H       1  UNL1        0.0239
     45 H          -1.1493    2.1328   24.4069 H       1  UNL1        0.0748
     46 H          -2.0537    0.9144   23.4780 H       1  UNL1        0.0748
     47 H           0.1615    2.5507   24.3651 H       1  UNL1        0.0655
     48 H           2.6544    2.9992   24.1319 H       1  UNL1        0.0634
     49 H           3.5659    3.6483   21.8798 H       1  UNL1        0.0829
     50 H          -0.3090    3.4489   20.0838 H       1  UNL1        0.0867
@<TRIPOS>BOND
     1     3     2   ar
     2     4     3   ar
     3     5     4   ar
     4     5     1    1
     5     6     5   ar
     6     7     6   ar
     7     7     2   ar
     8     8     2    1
     9     9     8   am
    10    10     9   am
    11    11     9    2
    12    12    10    1
    13    13    12   ar
    14    14    13   ar
    15    15    14   ar
    16    16    15   ar
    17    16    12   ar
    18    17    14    1
    19    18    17    1
    20    19    17    1
    21    20    17    1
    22    21     6    1
    23    22    21    1
    24    23    22    1
    25    24    23   ar
    26    25    24   ar
    27    26    25   ar
    28    27    26   ar
    29    28    27   ar
    30    28    23   ar
    31     3    29    1
    32     4    30    1
    33     7    31    1
    34     8    32    1
    35    10    33    1
    36    13    34    1
    37    16    35    1
    38    18    36    1
    39    18    37    1
    40    18    38    1
    41    19    39    1
    42    19    40    1
    43    19    41    1
    44    20    42    1
    45    20    43    1
    46    20    44    1
    47    21    45    1
    48    21    46    1
    49    24    47    1
    50    25    48    1
    51    26    49    1
    52    28    50    1
