LDT
  -OEChem-02242319243D

 36 37  0     0  0  0  0  0  0999 V2000
   -1.7780    0.1280    4.4750 C   0  0  0  0  0  0  0  0  0  0  0  0
   -2.0660    0.1640    1.7090 C   0  0  0  0  0  0  0  0  0  0  0  0
   -0.6500    0.0880    3.6720 C   0  0  0  0  0  0  0  0  0  0  0  0
   -3.0360    0.1850    3.9010 C   0  0  0  0  0  0  0  0  0  0  0  0
   -3.1770    0.2030    2.5200 C   0  0  0  0  0  0  0  0  0  0  0  0
   -0.7890    0.1110    2.2760 C   0  0  0  0  0  0  0  0  0  0  0  0
   -0.2850    0.1440   -6.6990 Br  0  0  0  0  0  0  0  0  0  0  0  0
   -4.1330    0.2240    4.6890 F   0  0  0  0  0  0  0  0  0  0  0  0
    0.4030    0.0700    1.4130 C   0  0  0  0  0  0  0  0  0  0  0  0
    1.4510    0.0410   -0.7850 C   0  0  0  0  0  0  0  0  0  0  0  0
   -0.1880   -1.9440   -1.9260 F   0  0  0  0  0  0  0  0  0  0  0  0
    0.5830    0.0330    4.2330 O   0  0  0  0  0  0  0  0  0  0  0  0
    1.9640    0.0050    2.1120 S   0  0  0  0  0  0  0  0  0  0  0  0
    0.2650    0.0830    0.0720 N   0  0  0  0  0  0  0  0  0  0  0  0
    0.3930    0.0290    5.6490 C   0  0  0  0  0  0  0  0  0  0  0  0
    1.0260    0.0660   -2.2310 C   0  0  0  0  0  0  0  0  0  0  0  0
    0.2460    0.1110   -4.8850 C   0  0  0  0  0  0  0  0  0  0  0  0
    1.4450    1.0910   -3.0570 C   0  0  0  0  0  0  0  0  0  0  0  0
    0.2200   -0.9410   -2.7330 C   0  0  0  0  0  0  0  0  0  0  0  0
   -0.1730   -0.9150   -4.0600 C   0  0  0  0  0  0  0  0  0  0  0  0
    1.0550    1.1150   -4.3830 C   0  0  0  0  0  0  0  0  0  0  0  0
    1.7340   -0.0310    6.3350 C   0  0  0  0  0  0  0  0  0  0  0  0
    1.8010   -0.0450    7.6760 O   0  0  0  0  0  0  0  0  0  0  0  0
    2.7480   -0.0670    5.6790 O   0  0  0  0  0  0  0  0  0  0  0  0
   -1.6750    0.1150    5.5500 H   0  0  0  0  0  0  0  0  0  0  0  0
   -2.1800    0.1780    0.6350 H   0  0  0  0  0  0  0  0  0  0  0  0
   -4.1630    0.2480    2.0810 H   0  0  0  0  0  0  0  0  0  0  0  0
    2.0810    0.9060   -0.5770 H   0  0  0  0  0  0  0  0  0  0  0  0
    2.0110   -0.8720   -0.5870 H   0  0  0  0  0  0  0  0  0  0  0  0
   -0.6190    0.1190   -0.3230 H   0  0  0  0  0  0  0  0  0  0  0  0
   -0.1990   -0.8390    5.9340 H   0  0  0  0  0  0  0  0  0  0  0  0
   -0.1260    0.9390    5.9480 H   0  0  0  0  0  0  0  0  0  0  0  0
    2.0770    1.8750   -2.6670 H   0  0  0  0  0  0  0  0  0  0  0  0
   -0.8050   -1.6990   -4.4520 H   0  0  0  0  0  0  0  0  0  0  0  0
    1.3830    1.9170   -5.0280 H   0  0  0  0  0  0  0  0  0  0  0  0
    2.6610   -0.0840    8.1160 H   0  0  0  0  0  0  0  0  0  0  0  0
  1  3  2  0  0  0  0
  1  4  1  0  0  0  0
  1 25  1  0  0  0  0
  2  5  1  0  0  0  0
  2  6  2  0  0  0  0
  2 26  1  0  0  0  0
  3  6  1  0  0  0  0
  3 12  1  0  0  0  0
  4  5  2  0  0  0  0
  4  8  1  0  0  0  0
  5 27  1  0  0  0  0
  6  9  1  0  0  0  0
  7 17  1  0  0  0  0
  9 13  2  0  0  0  0
  9 14  1  0  0  0  0
 10 14  1  0  0  0  0
 10 16  1  0  0  0  0
 10 28  1  0  0  0  0
 10 29  1  0  0  0  0
 11 19  1  0  0  0  0
 12 15  1  0  0  0  0
 14 30  1  0  0  0  0
 15 22  1  0  0  0  0
 15 31  1  0  0  0  0
 15 32  1  0  0  0  0
 16 18  2  0  0  0  0
 16 19  1  0  0  0  0
 17 20  1  0  0  0  0
 17 21  2  0  0  0  0
 18 21  1  0  0  0  0
 18 33  1  0  0  0  0
 19 20  2  0  0  0  0
 20 34  1  0  0  0  0
 21 35  1  0  0  0  0
 22 23  1  0  0  0  0
 22 24  2  0  0  0  0
 23 36  1  0  0  0  0
M  END
> <OPENEYE_ISO_SMILES>
c1cc(c(cc1F)OCC(=O)O)C(=S)NCc2ccc(cc2F)Br

> <OPENEYE_INCHI>
InChI=1S/C16H12BrF2NO3S/c17-10-2-1-9(13(19)5-10)7-20-16(24)12-4-3-11(18)6-14(12)23-8-15(21)22/h1-6H,7-8H2,(H,20,24)(H,21,22)

> <OPENEYE_INCHIKEY>
JCZUIWYXULSXSW-UHFFFAOYSA-N

> <FORMULA>
C16H12BrF2NO3S

$$$$
