LDT
  Mrv15b2303062314202D          

 24 25  0  0  0  0            999 V2000
    0.9614    2.0785    0.0000 C   0  0  0  0  0  0  0  0  0  0  0  0
   -0.4675    1.2535    0.0000 C   0  0  0  0  0  0  0  0  0  0  0  0
    0.9614    1.2535    0.0000 C   0  0  0  0  0  0  0  0  0  0  0  0
    0.2469    2.4910    0.0000 C   0  0  0  0  0  0  0  0  0  0  0  0
   -0.4675    2.0785    0.0000 C   0  0  0  0  0  0  0  0  0  0  0  0
    0.2469    0.8410    0.0000 C   0  0  0  0  0  0  0  0  0  0  0  0
   -3.3254   -2.8715    0.0000 Br  0  0  0  0  0  0  0  0  0  0  0  0
    0.2469    3.3160    0.0000 F   0  0  0  0  0  0  0  0  0  0  0  0
    0.2469    0.0160    0.0000 C   0  0  0  0  0  0  0  0  0  0  0  0
   -0.4675   -1.2215    0.0000 C   0  0  0  0  0  0  0  0  0  0  0  0
   -1.8965   -0.3965    0.0000 F   0  0  0  0  0  0  0  0  0  0  0  0
    1.6759    0.8410    0.0000 O   0  0  0  0  0  0  0  0  0  0  0  0
    0.9614   -0.3965    0.0000 S   0  0  0  0  0  0  0  0  0  0  0  0
   -0.4675   -0.3965    0.0000 N   0  0  0  0  0  0  0  0  0  0  0  0
    2.3903    1.2535    0.0000 C   0  0  0  0  0  0  0  0  0  0  0  0
   -1.1820   -1.6340    0.0000 C   0  0  0  0  0  0  0  0  0  0  0  0
   -2.6110   -2.4590    0.0000 C   0  0  0  0  0  0  0  0  0  0  0  0
   -1.1820   -2.4590    0.0000 C   0  0  0  0  0  0  0  0  0  0  0  0
   -1.8965   -1.2215    0.0000 C   0  0  0  0  0  0  0  0  0  0  0  0
   -2.6110   -1.6340    0.0000 C   0  0  0  0  0  0  0  0  0  0  0  0
   -1.8965   -2.8715    0.0000 C   0  0  0  0  0  0  0  0  0  0  0  0
    3.1048    0.8410    0.0000 C   0  0  0  0  0  0  0  0  0  0  0  0
    3.8193    1.2535    0.0000 O   0  0  0  0  0  0  0  0  0  0  0  0
    3.1048    0.0160    0.0000 O   0  0  0  0  0  0  0  0  0  0  0  0
  1  3  4  0  0  0  0
  1  4  4  0  0  0  0
  2  5  4  0  0  0  0
  2  6  4  0  0  0  0
  3  6  4  0  0  0  0
  3 12  1  0  0  0  0
  4  5  4  0  0  0  0
  4  8  1  0  0  0  0
  6  9  1  0  0  0  0
  7 17  1  0  0  0  0
  9 13  2  0  0  0  0
  9 14  1  0  0  0  0
 10 14  1  0  0  0  0
 10 16  1  0  0  0  0
 11 19  1  0  0  0  0
 12 15  1  0  0  0  0
 15 22  1  0  0  0  0
 16 18  4  0  0  0  0
 16 19  4  0  0  0  0
 17 20  4  0  0  0  0
 17 21  4  0  0  0  0
 18 21  4  0  0  0  0
 19 20  4  0  0  0  0
 22 23  1  0  0  0  0
 22 24  2  0  0  0  0
M  END
