@<TRIPOS>MOLECULE
LDT
 36 37 0 0 0
SMALL
GASTEIGER

@<TRIPOS>ATOM
      1 C          -1.7780    0.1280    4.4750 C.ar    1  LIG1        0.0160
      2 C          -2.0660    0.1640    1.7090 C.ar    1  LIG1       -0.0461
      3 C          -0.6500    0.0880    3.6720 C.ar    1  LIG1        0.1334
      4 C          -3.0360    0.1850    3.9010 C.ar    1  LIG1        0.1269
      5 C          -3.1770    0.2030    2.5200 C.ar    1  LIG1       -0.0256
      6 C          -0.7890    0.1110    2.2760 C.ar    1  LIG1        0.0450
      7 BR         -0.2850    0.1440   -6.6990 Br      1  LIG1       -0.0502
      8 F          -4.1330    0.2240    4.6890 F       1  LIG1       -0.2054
      9 C           0.4030    0.0700    1.4130 C.2     1  LIG1        0.0832
     10 C           1.4510    0.0410   -0.7850 C.3     1  LIG1        0.0376
     11 F          -0.1880   -1.9440   -1.9260 F       1  LIG1       -0.2051
     12 O           0.5830    0.0330    4.2330 O.3     1  LIG1       -0.4800
     13 S           1.9640    0.0050    2.1120 S.2     1  LIG1       -0.0349
     14 N           0.2650    0.0830    0.0720 N.am    1  LIG1       -0.3333
     15 C           0.3930    0.0290    5.6490 C.3     1  LIG1        0.1857
     16 C           1.0260    0.0660   -2.2310 C.ar    1  LIG1        0.0048
     17 C           0.2460    0.1110   -4.8850 C.ar    1  LIG1        0.0206
     18 C           1.4450    1.0910   -3.0570 C.ar    1  LIG1       -0.0533
     19 C           0.2200   -0.9410   -2.7330 C.ar    1  LIG1        0.1291
     20 C          -0.1730   -0.9150   -4.0600 C.ar    1  LIG1       -0.0122
     21 C           1.0550    1.1150   -4.3830 C.ar    1  LIG1       -0.0473
     22 C           1.7340   -0.0310    6.3350 C.2     1  LIG1        0.3427
     23 O           1.8010   -0.0450    7.6760 O.3     1  LIG1       -0.4783
     24 O           2.7480   -0.0670    5.6790 O.2     1  LIG1       -0.2472
     25 H          -1.6750    0.1150    5.5500 H       1  LIG1        0.0683
     26 H          -2.1800    0.1780    0.6350 H       1  LIG1        0.0626
     27 H          -4.1630    0.2480    2.0810 H       1  LIG1        0.0646
     28 H           2.0810    0.9060   -0.5770 H       1  LIG1        0.0512
     29 H           2.0110   -0.8720   -0.5870 H       1  LIG1        0.0512
     30 H          -0.6190    0.1190   -0.3230 H       1  LIG1        0.1469
     31 H          -0.1990   -0.8390    5.9340 H       1  LIG1        0.0815
     32 H          -0.1260    0.9390    5.9480 H       1  LIG1        0.0815
     33 H           2.0770    1.8750   -2.6670 H       1  LIG1        0.0622
     34 H          -0.8050   -1.6990   -4.4520 H       1  LIG1        0.0657
     35 H           1.3830    1.9170   -5.0280 H       1  LIG1        0.0629
     36 H           2.6610   -0.0840    8.1160 H       1  LIG1        0.2952
@<TRIPOS>BOND
     1     1     3   ar
     2     1     4   ar
     3     1    25    1
     4     2     5   ar
     5     2     6   ar
     6     2    26    1
     7     3     6   ar
     8     3    12    1
     9     4     5   ar
    10     4     8    1
    11     5    27    1
    12     6     9    1
    13     7    17    1
    14     9    13    2
    15     9    14    1
    16    10    14    1
    17    10    16    1
    18    10    28    1
    19    10    29    1
    20    11    19    1
    21    12    15    1
    22    14    30    1
    23    15    22    1
    24    15    31    1
    25    15    32    1
    26    16    18   ar
    27    16    19   ar
    28    17    20   ar
    29    17    21   ar
    30    18    21   ar
    31    18    33    1
    32    19    20   ar
    33    20    34    1
    34    21    35    1
    35    22    23    1
    36    22    24    2
    37    23    36    1
