@<TRIPOS>MOLECULE
PFQ
 42 45 0 0 0
SMALL
GASTEIGER

@<TRIPOS>ATOM
      1 C          -3.5610   -0.0760    2.2820 C.ar    1  LIG1        0.1219
      2 C          -1.1100   -0.0360   -1.4540 C.ar    1  LIG1        0.1460
      3 C          -0.5600   -0.0200   -2.8230 C.ar    1  LIG1        0.0180
      4 C          -1.0580    0.8790   -3.7680 C.ar    1  LIG1       -0.0511
      5 C          -0.5400    0.8880   -5.0460 C.ar    1  LIG1       -0.0611
      6 C           0.4700    0.0090   -5.3930 C.ar    1  LIG1       -0.0617
      7 C           0.9690   -0.8840   -4.4610 C.ar    1  LIG1       -0.0611
      8 C           0.4640   -0.9010   -3.1780 C.ar    1  LIG1       -0.0511
      9 C           1.7700   -1.1770    0.3110 C.ar    1  LIG1       -0.0539
     10 C           3.1460   -1.1780    0.4060 C.ar    1  LIG1       -0.0612
     11 C           3.8700   -0.0670    0.0100 C.ar    1  LIG1       -0.0617
     12 C           3.2200    1.0480   -0.4870 C.ar    1  LIG1       -0.0612
     13 N          -3.6810   -0.0600    0.9720 N.ar    1  LIG1       -0.2005
     14 C          -2.6050   -0.0530    0.1890 C.ar    1  LIG1        0.2331
     15 O          -2.4210   -0.0370   -1.1420 O.2     1  LIG1       -0.4360
     16 C          -1.3380   -0.0580    0.7960 C.ar    1  LIG1        0.0878
     17 N          -0.0300   -0.0930    2.8330 N.pl3   1  LIG1       -0.3262
     18 C          -1.2570   -0.0820    2.1940 C.ar    1  LIG1        0.1336
     19 N          -2.3900   -0.0870    2.8920 N.ar    1  LIG1       -0.2201
     20 C           1.8450    1.0580   -0.5920 C.ar    1  LIG1       -0.0539
     21 C          -0.3670   -0.0530   -0.3050 C.ar    1  LIG1        0.0406
     22 C           1.1090   -0.0580   -0.1950 C.ar    1  LIG1       -0.0135
     23 C           1.4960   -0.1210    4.7440 C.3     1  LIG1        0.0597
     24 C           0.0320   -0.1110    4.2970 C.3     1  LIG1        0.0336
     25 O           2.1510    1.0490    4.2530 O.3     1  LIG1       -0.3935
     26 H          -4.4570   -0.0820    2.8840 H       1  LIG1        0.1049
     27 H          -1.8480    1.5650   -3.4990 H       1  LIG1        0.0625
     28 H          -0.9240    1.5840   -5.7780 H       1  LIG1        0.0618
     29 H           0.8720    0.0210   -6.3950 H       1  LIG1        0.0618
     30 H           1.7580   -1.5670   -4.7390 H       1  LIG1        0.0618
     31 H           0.8530   -1.5990   -2.4520 H       1  LIG1        0.0625
     32 H           1.2060   -2.0450    0.6200 H       1  LIG1        0.0624
     33 H           3.6590   -2.0450    0.7930 H       1  LIG1        0.0618
     34 H           4.9470   -0.0710    0.0900 H       1  LIG1        0.0618
     35 H           3.7910    1.9110   -0.7940 H       1  LIG1        0.0618
     36 H           0.7870   -0.0890    2.3120 H       1  LIG1        0.1476
     37 H           1.3380    1.9290   -0.9820 H       1  LIG1        0.0624
     38 H           1.9910   -1.0080    4.3470 H       1  LIG1        0.0573
     39 H           1.5430   -0.1350    5.8320 H       1  LIG1        0.0573
     40 H          -0.4670   -1.0050    4.6710 H       1  LIG1        0.0484
     41 H          -0.4620    0.7740    4.6930 H       1  LIG1        0.0484
     42 H           3.0680    1.0040    4.5570 H       1  LIG1        0.2095
@<TRIPOS>BOND
     1     1    13   ar
     2     1    19   ar
     3     1    26    1
     4     2     3    1
     5     2    15   ar
     6     2    21   ar
     7     3     4   ar
     8     3     8   ar
     9     4     5   ar
    10     4    27    1
    11     5     6   ar
    12     5    28    1
    13     6     7   ar
    14     6    29    1
    15     7     8   ar
    16     7    30    1
    17     8    31    1
    18     9    10   ar
    19     9    22   ar
    20     9    32    1
    21    10    11   ar
    22    10    33    1
    23    11    12   ar
    24    11    34    1
    25    12    20   ar
    26    12    35    1
    27    13    14   ar
    28    14    15   ar
    29    14    16   ar
    30    16    18   ar
    31    16    21   ar
    32    17    18    1
    33    17    24    1
    34    17    36    1
    35    18    19   ar
    36    20    22   ar
    37    20    37    1
    38    21    22    1
    39    23    24    1
    40    23    25    1
    41    23    38    1
    42    23    39    1
    43    24    40    1
    44    24    41    1
    45    25    42    1
