PFQ
  Mrv15b2303062313512D          

 25 28  0  0  0  0            999 V2000
    2.3172   -1.3500    0.0000 C   0  0  0  0  0  0  0  0  0  0  0  0
   -0.3813   -0.9375    0.0000 C   0  0  0  0  0  0  0  0  0  0  0  0
   -1.2063   -0.9375    0.0000 C   0  0  0  0  0  0  0  0  0  0  0  0
   -1.6188   -1.6520    0.0000 C   0  0  0  0  0  0  0  0  0  0  0  0
   -2.4438   -1.6520    0.0000 C   0  0  0  0  0  0  0  0  0  0  0  0
   -2.8563   -0.9375    0.0000 C   0  0  0  0  0  0  0  0  0  0  0  0
   -2.4438   -0.2231    0.0000 C   0  0  0  0  0  0  0  0  0  0  0  0
   -1.6188   -0.2231    0.0000 C   0  0  0  0  0  0  0  0  0  0  0  0
   -0.9583    0.6860    0.0000 C   0  0  0  0  0  0  0  0  0  0  0  0
   -1.2132    1.4707    0.0000 C   0  0  0  0  0  0  0  0  0  0  0  0
   -0.6612    2.0838    0.0000 C   0  0  0  0  0  0  0  0  0  0  0  0
    0.1458    1.9122    0.0000 C   0  0  0  0  0  0  0  0  0  0  0  0
    1.6027   -1.7625    0.0000 N   0  0  0  0  0  0  0  0  0  0  0  0
    0.8882   -1.3500    0.0000 C   0  0  0  0  0  0  0  0  0  0  0  0
    0.1036   -1.6050    0.0000 O   0  0  0  0  0  0  0  0  0  0  0  0
    0.8882   -0.5250    0.0000 C   0  0  0  0  0  0  0  0  0  0  0  0
    1.6027    0.7125    0.0000 N   0  0  0  0  0  0  0  0  0  0  0  0
    1.6027   -0.1125    0.0000 C   0  0  0  0  0  0  0  0  0  0  0  0
    2.3172   -0.5250    0.0000 N   0  0  0  0  0  0  0  0  0  0  0  0
    0.4007    1.1276    0.0000 C   0  0  0  0  0  0  0  0  0  0  0  0
    0.1036   -0.2701    0.0000 C   0  0  0  0  0  0  0  0  0  0  0  0
   -0.1513    0.5145    0.0000 C   0  0  0  0  0  0  0  0  0  0  0  0
    0.8882    1.9500    0.0000 C   0  0  0  0  0  0  0  0  0  0  0  0
    0.8882    1.1250    0.0000 C   0  0  0  0  0  0  0  0  0  0  0  0
    1.6027    2.3625    0.0000 O   0  0  0  0  0  0  0  0  0  0  0  0
  1 13  4  0  0  0  0
  1 19  4  0  0  0  0
  2  3  1  0  0  0  0
  2 15  4  0  0  0  0
  2 21  4  0  0  0  0
  3  4  4  0  0  0  0
  3  8  4  0  0  0  0
  4  5  4  0  0  0  0
  5  6  4  0  0  0  0
  6  7  4  0  0  0  0
  7  8  4  0  0  0  0
  9 10  4  0  0  0  0
  9 22  4  0  0  0  0
 10 11  4  0  0  0  0
 11 12  4  0  0  0  0
 12 20  4  0  0  0  0
 13 14  4  0  0  0  0
 14 15  4  0  0  0  0
 14 16  4  0  0  0  0
 16 18  4  0  0  0  0
 16 21  4  0  0  0  0
 17 18  1  0  0  0  0
 17 24  1  0  0  0  0
 18 19  4  0  0  0  0
 20 22  4  0  0  0  0
 21 22  1  0  0  0  0
 23 24  1  0  0  0  0
 23 25  1  0  0  0  0
M  END
