PFQ
  -OEChem-10012118193D

 42 45  0     0  0  0  0  0  0999 V2000
   -3.5610   -0.0760    2.2820 C   0  0  0  0  0  0  0  0  0  0  0  0
   -1.1100   -0.0360   -1.4540 C   0  0  0  0  0  0  0  0  0  0  0  0
   -0.5600   -0.0200   -2.8230 C   0  0  0  0  0  0  0  0  0  0  0  0
   -1.0580    0.8790   -3.7680 C   0  0  0  0  0  0  0  0  0  0  0  0
   -0.5400    0.8880   -5.0460 C   0  0  0  0  0  0  0  0  0  0  0  0
    0.4700    0.0090   -5.3930 C   0  0  0  0  0  0  0  0  0  0  0  0
    0.9690   -0.8840   -4.4610 C   0  0  0  0  0  0  0  0  0  0  0  0
    0.4640   -0.9010   -3.1780 C   0  0  0  0  0  0  0  0  0  0  0  0
    1.7700   -1.1770    0.3110 C   0  0  0  0  0  0  0  0  0  0  0  0
    3.1460   -1.1780    0.4060 C   0  0  0  0  0  0  0  0  0  0  0  0
    3.8700   -0.0670    0.0100 C   0  0  0  0  0  0  0  0  0  0  0  0
    3.2200    1.0480   -0.4870 C   0  0  0  0  0  0  0  0  0  0  0  0
   -3.6810   -0.0600    0.9720 N   0  0  0  0  0  0  0  0  0  0  0  0
   -2.6050   -0.0530    0.1890 C   0  0  0  0  0  0  0  0  0  0  0  0
   -2.4210   -0.0370   -1.1420 O   0  0  0  0  0  0  0  0  0  0  0  0
   -1.3380   -0.0580    0.7960 C   0  0  0  0  0  0  0  0  0  0  0  0
   -0.0300   -0.0930    2.8330 N   0  0  0  0  0  0  0  0  0  0  0  0
   -1.2570   -0.0820    2.1940 C   0  0  0  0  0  0  0  0  0  0  0  0
   -2.3900   -0.0870    2.8920 N   0  0  0  0  0  0  0  0  0  0  0  0
    1.8450    1.0580   -0.5920 C   0  0  0  0  0  0  0  0  0  0  0  0
   -0.3670   -0.0530   -0.3050 C   0  0  0  0  0  0  0  0  0  0  0  0
    1.1090   -0.0580   -0.1950 C   0  0  0  0  0  0  0  0  0  0  0  0
    1.4960   -0.1210    4.7440 C   0  0  0  0  0  0  0  0  0  0  0  0
    0.0320   -0.1110    4.2970 C   0  0  0  0  0  0  0  0  0  0  0  0
    2.1510    1.0490    4.2530 O   0  0  0  0  0  0  0  0  0  0  0  0
   -4.4570   -0.0820    2.8840 H   0  0  0  0  0  0  0  0  0  0  0  0
   -1.8480    1.5650   -3.4990 H   0  0  0  0  0  0  0  0  0  0  0  0
   -0.9240    1.5840   -5.7780 H   0  0  0  0  0  0  0  0  0  0  0  0
    0.8720    0.0210   -6.3950 H   0  0  0  0  0  0  0  0  0  0  0  0
    1.7580   -1.5670   -4.7390 H   0  0  0  0  0  0  0  0  0  0  0  0
    0.8530   -1.5990   -2.4520 H   0  0  0  0  0  0  0  0  0  0  0  0
    1.2060   -2.0450    0.6200 H   0  0  0  0  0  0  0  0  0  0  0  0
    3.6590   -2.0450    0.7930 H   0  0  0  0  0  0  0  0  0  0  0  0
    4.9470   -0.0710    0.0900 H   0  0  0  0  0  0  0  0  0  0  0  0
    3.7910    1.9110   -0.7940 H   0  0  0  0  0  0  0  0  0  0  0  0
    0.7870   -0.0890    2.3120 H   0  0  0  0  0  0  0  0  0  0  0  0
    1.3380    1.9290   -0.9820 H   0  0  0  0  0  0  0  0  0  0  0  0
    1.9910   -1.0080    4.3470 H   0  0  0  0  0  0  0  0  0  0  0  0
    1.5430   -0.1350    5.8320 H   0  0  0  0  0  0  0  0  0  0  0  0
   -0.4670   -1.0050    4.6710 H   0  0  0  0  0  0  0  0  0  0  0  0
   -0.4620    0.7740    4.6930 H   0  0  0  0  0  0  0  0  0  0  0  0
    3.0680    1.0040    4.5570 H   0  0  0  0  0  0  0  0  0  0  0  0
  1 13  2  0  0  0  0
  1 19  1  0  0  0  0
  1 26  1  0  0  0  0
  2  3  1  0  0  0  0
  2 15  1  0  0  0  0
  2 21  2  0  0  0  0
  3  4  2  0  0  0  0
  3  8  1  0  0  0  0
  4  5  1  0  0  0  0
  4 27  1  0  0  0  0
  5  6  2  0  0  0  0
  5 28  1  0  0  0  0
  6  7  1  0  0  0  0
  6 29  1  0  0  0  0
  7  8  2  0  0  0  0
  7 30  1  0  0  0  0
  8 31  1  0  0  0  0
  9 10  2  0  0  0  0
  9 22  1  0  0  0  0
  9 32  1  0  0  0  0
 10 11  1  0  0  0  0
 10 33  1  0  0  0  0
 11 12  2  0  0  0  0
 11 34  1  0  0  0  0
 12 20  1  0  0  0  0
 12 35  1  0  0  0  0
 13 14  1  0  0  0  0
 14 15  1  0  0  0  0
 14 16  2  0  0  0  0
 16 18  1  0  0  0  0
 16 21  1  0  0  0  0
 17 18  1  0  0  0  0
 17 24  1  0  0  0  0
 17 36  1  0  0  0  0
 18 19  2  0  0  0  0
 20 22  2  0  0  0  0
 20 37  1  0  0  0  0
 21 22  1  0  0  0  0
 23 24  1  0  0  0  0
 23 25  1  0  0  0  0
 23 38  1  0  0  0  0
 23 39  1  0  0  0  0
 24 40  1  0  0  0  0
 24 41  1  0  0  0  0
 25 42  1  0  0  0  0
M  END
> <OPENEYE_ISO_SMILES>
c1ccc(cc1)c2c3c(ncnc3oc2c4ccccc4)NCCO

> <OPENEYE_INCHI>
InChI=1S/C20H17N3O2/c24-12-11-21-19-17-16(14-7-3-1-4-8-14)18(15-9-5-2-6-10-15)25-20(17)23-13-22-19/h1-10,13,24H,11-12H2,(H,21,22,23)

> <OPENEYE_INCHIKEY>
UQHINZSKNAAVOZ-UHFFFAOYSA-N

> <FORMULA>
C20H17N3O2

$$$$
