715
 OpenBabel04182217383D

 43 45  0  0  0  0  0  0  0  0999 V2000
   37.9120   49.5930   45.1530 C   0  0  0  0  0  0  0  0  0  0  0  0
   36.9980   50.6980   45.2360 C   0  0  0  0  0  0  0  0  0  0  0  0
   36.4860   48.2950   46.7740 C   0  0  0  0  0  0  0  0  0  0  0  0
   39.1490   49.6140   44.3090 C   0  0  0  0  0  0  0  0  0  0  0  0
   39.1530   50.0680   40.6250 C   0  0  0  0  0  0  0  0  0  0  0  0
   39.9710   51.4410   42.8960 C   0  0  0  0  0  0  0  0  0  0  0  0
   36.3940   50.4810   36.9580 N   0  0  0  0  0  0  0  0  0  0  0  0
   39.3370   50.3010   39.1380 C   0  0  0  0  0  0  0  0  0  0  0  0
   35.9180   50.9560   38.0260 N   0  0  0  0  0  0  0  0  0  0  0  0
   37.6330   48.4120   45.9330 C   0  0  0  0  0  0  0  0  0  0  0  0
   36.9280   51.4210   40.4070 C   0  0  0  0  0  0  0  0  0  0  0  0
   36.8830   50.9600   38.9360 C   0  0  0  0  0  0  0  0  0  0  0  0
   39.5740   50.3920   35.8540 F   0  0  0  0  0  0  0  0  0  0  0  0
   37.8380   49.4270   34.9720 F   0  0  0  0  0  0  0  0  0  0  0  0
   39.0610   48.3810   36.4740 F   0  0  0  0  0  0  0  0  0  0  0  0
   35.8450   50.5800   46.0800 C   0  0  0  0  0  0  0  0  0  0  0  0
   35.6030   49.4030   46.8360 C   0  0  0  0  0  0  0  0  0  0  0  0
   34.5500   49.3220   47.5980 F   0  0  0  0  0  0  0  0  0  0  0  0
   35.0140   51.5880   46.1600 F   0  0  0  0  0  0  0  0  0  0  0  0
   38.4610   47.3790   45.8700 F   0  0  0  0  0  0  0  0  0  0  0  0
   38.0530   50.8040   41.2920 N   0  0  0  0  0  0  0  0  0  0  0  0
   38.6350   51.8250   42.1230 C   0  0  0  0  0  0  0  0  0  0  0  0
   37.6890   50.1610   37.1470 C   0  0  0  0  0  0  0  0  0  0  0  0
   38.1300   52.9480   42.3090 O   0  0  0  0  0  0  0  0  0  0  0  0
   38.0400   50.4500   38.4140 N   0  0  0  0  0  0  0  0  0  0  0  0
   39.8540   50.9860   44.3290 C   0  0  2  0  0  0  0  0  0  0  0  0
   38.5870   49.5620   36.0600 C   0  0  0  0  0  0  0  0  0  0  0  0
   41.1850   50.8350   44.9190 N   0  0  0  0  0  0  0  0  0  0  0  0
   37.1683   51.5618   44.6975 H   0  0  0  0  0  0  0  0  0  0  0  0
   36.3058   47.4360   47.3169 H   0  0  0  0  0  0  0  0  0  0  0  0
   38.8800   49.3810   43.2999 H   0  0  0  0  0  0  0  0  0  0  0  0
   39.8294   48.8927   44.7111 H   0  0  0  0  0  0  0  0  0  0  0  0
   40.0660   50.3437   41.1100 H   0  0  0  0  0  0  0  0  0  0  0  0
   38.8885   49.0349   40.7130 H   0  0  0  0  0  0  0  0  0  0  0  0
   40.6032   52.3042   42.8869 H   0  0  0  0  0  0  0  0  0  0  0  0
   40.3454   50.5855   42.3737 H   0  0  0  0  0  0  0  0  0  0  0  0
   39.8666   49.4686   38.7239 H   0  0  0  0  0  0  0  0  0  0  0  0
   39.8809   51.2147   39.0186 H   0  0  0  0  0  0  0  0  0  0  0  0
   35.9884   51.1729   40.8549 H   0  0  0  0  0  0  0  0  0  0  0  0
   37.1379   52.4696   40.3702 H   0  0  0  0  0  0  0  0  0  0  0  0
   39.3063   51.7000   44.9079 H   0  0  0  0  0  0  0  0  0  0  0  0
   41.7216   50.1566   44.3784 H   0  0  0  0  0  0  0  0  0  0  0  0
   41.0954   50.5086   45.8812 H   0  0  0  0  0  0  0  0  0  0  0  0
  2  1  2  0  0  0  0
  2 29  1  0  0  0  0
  3 30  1  0  0  0  0
  4  1  1  0  0  0  0
  4 31  1  0  0  0  0
  4 32  1  0  0  0  0
  5 33  1  0  0  0  0
  5 34  1  0  0  0  0
  6 35  1  0  0  0  0
  6 36  1  0  0  0  0
  8  5  1  0  0  0  0
  8 37  1  0  0  0  0
  8 38  1  0  0  0  0
  9  7  1  0  0  0  0
 10  3  2  0  0  0  0
 10  1  1  0  0  0  0
 11 39  1  0  0  0  0
 11 40  1  0  0  0  0
 12  9  2  0  0  0  0
 12 11  1  0  0  0  0
 16  2  1  0  0  0  0
 17  3  1  0  0  0  0
 17 16  2  0  0  0  0
 18 17  1  0  0  0  0
 19 16  1  0  0  0  0
 20 10  1  0  0  0  0
 21 11  1  0  0  0  0
 21  5  1  0  0  0  0
 22 21  1  0  0  0  0
 22  6  1  0  0  0  0
 23  7  2  0  0  0  0
 24 22  2  0  0  0  0
 25 23  1  0  0  0  0
 25 12  1  0  0  0  0
 25  8  1  0  0  0  0
 26  6  1  0  0  0  0
 26  4  1  0  0  0  0
 26 41  1  1  0  0  0
 27 23  1  0  0  0  0
 27 14  1  0  0  0  0
 27 15  1  0  0  0  0
 27 13  1  0  0  0  0
 28 26  1  0  0  0  0
 28 42  1  0  0  0  0
 28 43  1  0  0  0  0
M  END
$$$$
