@<TRIPOS>MOLECULE
715
 43 45 0 0 0
SMALL
GASTEIGER

@<TRIPOS>ATOM
      1 C          37.9120   49.5930   45.1530 C.ar    1  UNL1       -0.0078
      2 C          36.9980   50.6980   45.2360 C.ar    1  UNL1       -0.0176
      3 C          36.4860   48.2950   46.7740 C.ar    1  UNL1        0.0119
      4 C          39.1490   49.6140   44.3090 C.3     1  UNL1       -0.0092
      5 C          39.1530   50.0680   40.6250 C.3     1  UNL1        0.0332
      6 C          39.9710   51.4410   42.8960 C.3     1  UNL1        0.0396
      7 N          36.3940   50.4810   36.9580 N.ar    1  UNL1       -0.1250
      8 C          39.3370   50.3010   39.1380 C.3     1  UNL1        0.0422
      9 N          35.9180   50.9560   38.0260 N.ar    1  UNL1       -0.1324
     10 C          37.6330   48.4120   45.9330 C.ar    1  UNL1        0.1295
     11 C          36.9280   51.4210   40.4070 C.3     1  UNL1        0.0746
     12 C          36.8830   50.9600   38.9360 C.ar    1  UNL1        0.1512
     13 F          39.5740   50.3920   35.8540 F       1  UNL1       -0.1632
     14 F          37.8380   49.4270   34.9720 F       1  UNL1       -0.1632
     15 F          39.0610   48.3810   36.4740 F       1  UNL1       -0.1632
     16 C          35.8450   50.5800   46.0800 C.ar    1  UNL1        0.1588
     17 C          35.6030   49.4030   46.8360 C.ar    1  UNL1        0.1611
     18 F          34.5500   49.3220   47.5980 F       1  UNL1       -0.2024
     19 F          35.0140   51.5880   46.1600 F       1  UNL1       -0.2025
     20 F          38.4610   47.3790   45.8700 F       1  UNL1       -0.2051
     21 N          38.0530   50.8040   41.2920 N.am    1  UNL1       -0.2924
     22 C          38.6350   51.8250   42.1230 C.2     1  UNL1        0.2175
     23 C          37.6890   50.1610   37.1470 C.ar    1  UNL1        0.2376
     24 O          38.1300   52.9480   42.3090 O.2     1  UNL1       -0.2755
     25 N          38.0400   50.4500   38.4140 N.ar    1  UNL1       -0.3048
     26 C          39.8540   50.9860   44.3290 C.3     1  UNL1        0.0172
     27 C          38.5870   49.5620   36.0600 C.3     1  UNL1        0.4524
     28 N          41.1850   50.8350   44.9190 N.3     1  UNL1       -0.3265
     29 H          37.1683   51.5618   44.6975 H       1  UNL1        0.0651
     30 H          36.3058   47.4360   47.3169 H       1  UNL1        0.0676
     31 H          38.8800   49.3810   43.2999 H       1  UNL1        0.0329
     32 H          39.8294   48.8927   44.7111 H       1  UNL1        0.0329
     33 H          40.0660   50.3437   41.1100 H       1  UNL1        0.0482
     34 H          38.8885   49.0349   40.7130 H       1  UNL1        0.0482
     35 H          40.6032   52.3042   42.8869 H       1  UNL1        0.0374
     36 H          40.3454   50.5855   42.3737 H       1  UNL1        0.0374
     37 H          39.8666   49.4686   38.7239 H       1  UNL1        0.0508
     38 H          39.8809   51.2147   39.0186 H       1  UNL1        0.0508
     39 H          35.9884   51.1729   40.8549 H       1  UNL1        0.0545
     40 H          37.1379   52.4696   40.3702 H       1  UNL1        0.0545
     41 H          39.3063   51.7000   44.9079 H       1  UNL1        0.0466
     42 H          41.7216   50.1566   44.3784 H       1  UNL1        0.1185
     43 H          41.0954   50.5086   45.8812 H       1  UNL1        0.1185
@<TRIPOS>BOND
     1     2     1   ar
     2     4     1    1
     3     8     5    1
     4     9     7   ar
     5    10     3   ar
     6    10     1   ar
     7    12     9   ar
     8    12    11    1
     9    16     2   ar
    10    17     3   ar
    11    17    16   ar
    12    18    17    1
    13    19    16    1
    14    20    10    1
    15    21    11    1
    16    21     5    1
    17    22    21   am
    18    22     6    1
    19    23     7   ar
    20    24    22    2
    21    25    23   ar
    22    25    12   ar
    23    25     8    1
    24    26     6    1
    25    26     4    1
    26    27    23    1
    27    27    14    1
    28    27    15    1
    29    27    13    1
    30    28    26    1
    31     2    29    1
    32     3    30    1
    33     4    31    1
    34     4    32    1
    35     5    33    1
    36     5    34    1
    37     6    35    1
    38     6    36    1
    39     8    37    1
    40     8    38    1
    41    11    39    1
    42    11    40    1
    43    26    41    1
    44    28    42    1
    45    28    43    1
