SC3
 OpenBabel04182217383D

 49 52  0  0  0  0  0  0  0  0999 V2000
   45.2150   52.1500   38.2940 C   0  0  0  0  0  0  0  0  0  0  0  0
   45.0960   52.4890   36.9160 C   0  0  0  0  0  0  0  0  0  0  0  0
   44.0220   51.9820   36.1440 C   0  0  0  0  0  0  0  0  0  0  0  0
   43.1940   50.8040   38.1360 C   0  0  0  0  0  0  0  0  0  0  0  0
   44.2590   51.3070   38.9000 C   0  0  0  0  0  0  0  0  0  0  0  0
   43.0680   51.1390   36.7450 C   0  0  0  0  0  0  0  0  0  0  0  0
   42.0730   50.1900   42.0920 C   0  0  0  0  0  0  0  0  0  0  0  0
   41.1280   52.5420   42.1860 C   0  0  0  0  0  0  0  0  0  0  0  0
   42.1780   49.8970   38.8070 C   0  0  0  0  0  0  0  0  0  0  0  0
   36.3820   51.3780   39.7720 C   0  0  0  0  0  0  0  0  0  0  0  0
   41.1720   49.9550   43.3230 C   0  0  0  0  0  0  0  0  0  0  0  0
   41.5280   52.4420   43.6490 C   0  0  0  0  0  0  0  0  0  0  0  0
   37.7530   49.3000   35.5100 C   0  0  0  0  0  0  0  0  0  0  0  0
   39.7490   50.3710   38.5250 C   0  0  0  0  0  0  0  0  0  0  0  0
   38.7320   50.8370   39.2540 C   0  0  0  0  0  0  0  0  0  0  0  0
   40.6340   51.0880   40.3720 C   0  0  0  0  0  0  0  0  0  0  0  0
   39.3670   51.2980   40.4610 N   0  0  0  0  0  0  0  0  0  0  0  0
   41.6080   51.3900   41.3140 N   0  0  0  0  0  0  0  0  0  0  0  0
   38.0990   49.8430   36.8310 N   0  0  0  0  0  0  0  0  0  0  0  0
   35.9230   50.3000   37.2250 O   0  0  0  0  0  0  0  0  0  0  0  0
   37.4140   50.8370   38.8700 N   0  0  0  0  0  0  0  0  0  0  0  0
   40.3060   49.4110   36.4990 O   0  0  0  0  0  0  0  0  0  0  0  0
   39.4160   49.8320   37.1990 C   0  0  0  0  0  0  0  0  0  0  0  0
   40.8900   50.5070   39.1980 N   0  0  0  0  0  0  0  0  0  0  0  0
   41.1910   51.1230   44.2500 N   0  3  0  0  0  0  0  0  0  0  0  0
   37.0880   50.3230   37.6210 C   0  0  0  0  0  0  0  0  0  0  0  0
   46.0011   52.5212   38.8501 H   0  0  0  0  0  0  0  0  0  0  0  0
   45.7961   53.1075   36.4774 H   0  0  0  0  0  0  0  0  0  0  0  0
   43.9392   52.2295   35.1455 H   0  0  0  0  0  0  0  0  0  0  0  0
   44.3423   51.0617   39.8990 H   0  0  0  0  0  0  0  0  0  0  0  0
   42.2831   50.7641   36.1896 H   0  0  0  0  0  0  0  0  0  0  0  0
   42.0373   49.3268   41.4607 H   0  0  0  0  0  0  0  0  0  0  0  0
   43.0742   50.3641   42.4268 H   0  0  0  0  0  0  0  0  0  0  0  0
   41.5335   53.4501   41.7911 H   0  0  0  0  0  0  0  0  0  0  0  0
   40.0587   52.5127   42.1629 H   0  0  0  0  0  0  0  0  0  0  0  0
   42.6314   49.5041   39.6930 H   0  0  0  0  0  0  0  0  0  0  0  0
   41.9264   49.1660   38.0672 H   0  0  0  0  0  0  0  0  0  0  0  0
   36.8418   51.7199   40.6757 H   0  0  0  0  0  0  0  0  0  0  0  0
   35.6713   50.6116   40.0012 H   0  0  0  0  0  0  0  0  0  0  0  0
   35.8835   52.1953   39.2941 H   0  0  0  0  0  0  0  0  0  0  0  0
   41.5201   49.0899   43.8477 H   0  0  0  0  0  0  0  0  0  0  0  0
   40.1678   49.8167   42.9804 H   0  0  0  0  0  0  0  0  0  0  0  0
   41.0180   53.2073   44.1960 H   0  0  0  0  0  0  0  0  0  0  0  0
   42.5904   52.5579   43.7012 H   0  0  0  0  0  0  0  0  0  0  0  0
   38.6425   48.9675   35.0169 H   0  0  0  0  0  0  0  0  0  0  0  0
   37.2834   50.0616   34.9232 H   0  0  0  0  0  0  0  0  0  0  0  0
   37.0812   48.4756   35.6281 H   0  0  0  0  0  0  0  0  0  0  0  0
   41.8784   50.9295   44.9783 H   0  0  0  0  0  0  0  0  0  0  0  0
   40.2326   51.2165   44.5863 H   0  0  0  0  0  0  0  0  0  0  0  0
  1 27  1  0  0  0  0
  2  1  2  0  0  0  0
  2 28  1  0  0  0  0
  3  2  1  0  0  0  0
  3 29  1  0  0  0  0
  5  4  2  0  0  0  0
  5  1  1  0  0  0  0
  5 30  1  0  0  0  0
  6  4  1  0  0  0  0
  6  3  2  0  0  0  0
  6 31  1  0  0  0  0
  7 32  1  0  0  0  0
  7 33  1  0  0  0  0
  8 34  1  0  0  0  0
  8 35  1  0  0  0  0
  9  4  1  0  0  0  0
  9 36  1  0  0  0  0
  9 37  1  0  0  0  0
 10 38  1  0  0  0  0
 10 39  1  0  0  0  0
 10 40  1  0  0  0  0
 11  7  1  0  0  0  0
 11 41  1  0  0  0  0
 11 42  1  0  0  0  0
 12  8  1  0  0  0  0
 12 43  1  0  0  0  0
 12 44  1  0  0  0  0
 13 45  1  0  0  0  0
 13 46  1  0  0  0  0
 13 47  1  0  0  0  0
 15 14  2  0  0  0  0
 17 16  2  0  0  0  0
 17 15  1  0  0  0  0
 18 16  1  0  0  0  0
 18  8  1  0  0  0  0
 18  7  1  0  0  0  0
 19 13  1  0  0  0  0
 21 10  1  0  0  0  0
 21 15  1  0  0  0  0
 23 19  1  0  0  0  0
 23 22  2  0  0  0  0
 23 14  1  0  0  0  0
 24 16  1  0  0  0  0
 24 14  1  0  0  0  0
 24  9  1  0  0  0  0
 25 11  1  0  0  0  0
 25 12  1  0  0  0  0
 25 48  1  0  0  0  0
 25 49  1  0  0  0  0
 26 20  2  0  0  0  0
 26 19  1  0  0  0  0
 26 21  1  0  0  0  0
M  CHG  1  25   1
M  END
$$$$
