@<TRIPOS>MOLECULE
SC3
 49 52 0 0 0
SMALL
GASTEIGER

@<TRIPOS>ATOM
      1 C          45.2150   52.1500   38.2940 C.ar    1  UNL1       -0.0614
      2 C          45.0960   52.4890   36.9160 C.ar    1  UNL1       -0.0617
      3 C          44.0220   51.9820   36.1440 C.ar    1  UNL1       -0.0614
      4 C          43.1940   50.8040   38.1360 C.ar    1  UNL1       -0.0277
      5 C          44.2590   51.3070   38.9000 C.ar    1  UNL1       -0.0569
      6 C          43.0680   51.1390   36.7450 C.ar    1  UNL1       -0.0569
      7 C          42.0730   50.1900   42.0920 C.3     1  UNL1        0.0550
      8 C          41.1280   52.5420   42.1860 C.3     1  UNL1        0.0550
      9 C          42.1780   49.8970   38.8070 C.3     1  UNL1        0.0516
     10 C          36.3820   51.3780   39.7720 C.3     1  UNL1        0.0181
     11 C          41.1720   49.9550   43.3230 C.3     1  UNL1       -0.0174
     12 C          41.5280   52.4420   43.6490 C.3     1  UNL1       -0.0174
     13 C          37.7530   49.3000   35.5100 C.3     1  UNL1        0.0196
     14 C          39.7490   50.3710   38.5250 C.ar    1  UNL1        0.1532
     15 C          38.7320   50.8370   39.2540 C.ar    1  UNL1        0.1698
     16 C          40.6340   51.0880   40.3720 C.ar    1  UNL1        0.2014
     17 N          39.3670   51.2980   40.4610 N.ar    1  UNL1       -0.1959
     18 N          41.6080   51.3900   41.3140 N.pl3   1  UNL1       -0.2908
     19 N          38.0990   49.8430   36.8310 N.ar    1  UNL1       -0.2622
     20 O          35.9230   50.3000   37.2250 O.2     1  UNL1       -0.2462
     21 N          37.4140   50.8370   38.8700 N.ar    1  UNL1       -0.2795
     22 O          40.3060   49.4110   36.4990 O.2     1  UNL1       -0.2652
     23 C          39.4160   49.8320   37.1990 C.ar    1  UNL1        0.2822
     24 N          40.8900   50.5070   39.1980 N.ar    1  UNL1       -0.3018
     25 N          41.1910   51.1230   44.2500 N.4     1  UNL1        0.2292
     26 C          37.0880   50.3230   37.6210 C.ar    1  UNL1        0.3331
     27 H          46.0011   52.5212   38.8501 H       1  UNL1        0.0618
     28 H          45.7961   53.1075   36.4774 H       1  UNL1        0.0618
     29 H          43.9392   52.2295   35.1455 H       1  UNL1        0.0618
     30 H          44.3423   51.0617   39.8990 H       1  UNL1        0.0621
     31 H          42.2831   50.7641   36.1896 H       1  UNL1        0.0621
     32 H          42.0373   49.3268   41.4607 H       1  UNL1        0.0517
     33 H          43.0742   50.3641   42.4268 H       1  UNL1        0.0517
     34 H          41.5335   53.4501   41.7911 H       1  UNL1        0.0517
     35 H          40.0587   52.5127   42.1629 H       1  UNL1        0.0517
     36 H          42.6314   49.5041   39.6930 H       1  UNL1        0.0542
     37 H          41.9264   49.1660   38.0672 H       1  UNL1        0.0542
     38 H          36.8418   51.7199   40.6757 H       1  UNL1        0.0458
     39 H          35.6713   50.6116   40.0012 H       1  UNL1        0.0458
     40 H          35.8835   52.1953   39.2941 H       1  UNL1        0.0458
     41 H          41.5201   49.0899   43.8477 H       1  UNL1        0.0829
     42 H          40.1678   49.8167   42.9804 H       1  UNL1        0.0829
     43 H          41.0180   53.2073   44.1960 H       1  UNL1        0.0829
     44 H          42.5904   52.5579   43.7012 H       1  UNL1        0.0829
     45 H          38.6425   48.9675   35.0169 H       1  UNL1        0.0458
     46 H          37.2834   50.0616   34.9232 H       1  UNL1        0.0458
     47 H          37.0812   48.4756   35.6281 H       1  UNL1        0.0458
     48 H          41.8784   50.9295   44.9783 H       1  UNL1        0.2015
     49 H          40.2326   51.2165   44.5863 H       1  UNL1        0.2015
@<TRIPOS>UNITY_ATOM_ATTR
25 1
charge 1
@<TRIPOS>BOND
     1     2     1   ar
     2     3     2   ar
     3     5     4   ar
     4     5     1   ar
     5     6     4   ar
     6     6     3   ar
     7     9     4    1
     8    11     7    1
     9    12     8    1
    10    15    14   ar
    11    17    16   ar
    12    17    15   ar
    13    18    16    1
    14    18     8    1
    15    18     7    1
    16    19    13    1
    17    21    10    1
    18    21    15   ar
    19    23    19   ar
    20    23    22    2
    21    23    14   ar
    22    24    16   ar
    23    24    14   ar
    24    24     9    1
    25    25    11    1
    26    25    12    1
    27    26    20    2
    28    26    19   ar
    29    26    21   ar
    30     1    27    1
    31     2    28    1
    32     3    29    1
    33     5    30    1
    34     6    31    1
    35     7    32    1
    36     7    33    1
    37     8    34    1
    38     8    35    1
    39     9    36    1
    40     9    37    1
    41    10    38    1
    42    10    39    1
    43    10    40    1
    44    11    41    1
    45    11    42    1
    46    12    43    1
    47    12    44    1
    48    13    45    1
    49    13    46    1
    50    13    47    1
    51    25    48    1
    52    25    49    1
