@<TRIPOS>MOLECULE
1EN
 42 46 0 0 0
SMALL
GASTEIGER

@<TRIPOS>ATOM
      1 C          48.4470   63.1270   80.6520 C.ar    1  UNL1       -0.0415
      2 C          47.1630   62.7730   80.4500 C.ar    1  UNL1        0.0131
      3 N          46.5560   61.7700   81.1870 N.ar    1  UNL1       -0.2827
      4 C          47.2430   61.0810   82.1550 C.ar    1  UNL1        0.2037
      5 C          48.6520   61.4290   82.4140 C.ar    1  UNL1        0.1730
      6 C          49.2340   62.4140   81.6850 C.ar    1  UNL1       -0.0142
      7 C          45.2870   61.2830   81.1520 C.ar    1  UNL1        0.1484
      8 N          45.1780   60.3160   82.0270 N.ar    1  UNL1       -0.1327
      9 N          46.4510   60.1940   82.6980 N.ar    1  UNL1       -0.1256
     10 C          44.2180   61.7330   80.2070 C.3     1  UNL1        0.0558
     11 C          44.5990   62.0520   78.8030 C.3     1  UNL1       -0.0352
     12 C          43.7910   60.8310   79.0990 C.3     1  UNL1       -0.0352
     13 C          43.2260   62.6280   80.9150 C.ar    1  UNL1       -0.0338
     14 C          41.9320   62.1780   81.1930 C.ar    1  UNL1       -0.0562
     15 C          41.0320   63.0290   81.8540 C.ar    1  UNL1       -0.0431
     16 C          41.4320   64.3160   82.2510 C.ar    1  UNL1        0.0410
     17 CL         40.3020   65.3470   83.0580 Cl      1  UNL1       -0.0835
     18 C          42.7290   64.7730   81.9810 C.ar    1  UNL1       -0.0431
     19 C          43.6220   63.9220   81.3150 C.ar    1  UNL1       -0.0562
     20 O          49.3330   60.7520   83.3860 O.3     1  UNL1       -0.4494
     21 C          49.9110   59.5880   83.0110 C.ar    1  UNL1        0.1636
     22 C          49.3780   58.3730   83.4780 C.ar    1  UNL1        0.1654
     23 C          49.9590   57.1550   83.1130 C.ar    1  UNL1       -0.0228
     24 F          48.2970   58.3810   84.2780 F       1  UNL1       -0.2016
     25 C          51.0840   57.1710   82.2770 C.ar    1  UNL1       -0.0588
     26 C          51.6190   58.3940   81.8210 C.ar    1  UNL1       -0.0581
     27 C          51.0360   59.6150   82.1780 C.ar    1  UNL1       -0.0165
     28 H          48.9040   63.9330   80.0591 H       1  UNL1        0.0633
     29 H          46.5800   63.2957   79.6774 H       1  UNL1        0.0814
     30 H          50.2863   62.6823   81.8602 H       1  UNL1        0.0656
     31 H          44.1359   62.9066   78.2880 H       1  UNL1        0.0278
     32 H          45.5461   62.2501   78.2798 H       1  UNL1        0.0278
     33 H          42.7326   60.7862   78.8026 H       1  UNL1        0.0278
     34 H          43.8958   59.7571   78.8849 H       1  UNL1        0.0278
     35 H          41.6214   61.1653   80.8963 H       1  UNL1        0.0621
     36 H          40.0078   62.6861   82.0623 H       1  UNL1        0.0632
     37 H          43.0411   65.7826   82.2865 H       1  UNL1        0.0632
     38 H          44.6443   64.2673   81.1015 H       1  UNL1        0.0621
     39 H          49.5418   56.2035   83.4745 H       1  UNL1        0.0647
     40 H          51.5530   56.2231   81.9744 H       1  UNL1        0.0618
     41 H          52.5088   58.3878   81.1743 H       1  UNL1        0.0619
     42 H          51.4493   60.5676   81.8150 H       1  UNL1        0.0655
@<TRIPOS>BOND
     1     2     1   ar
     2     3     2   ar
     3     4     3   ar
     4     5     4   ar
     5     6     1   ar
     6     6     5   ar
     7     7     3   ar
     8     8     7   ar
     9     9     8   ar
    10     9     4   ar
    11    10     7    1
    12    11    10    1
    13    12    11    1
    14    12    10    1
    15    13    10    1
    16    14    13   ar
    17    15    14   ar
    18    16    15   ar
    19    17    16    1
    20    18    16   ar
    21    19    13   ar
    22    19    18   ar
    23    20     5    1
    24    21    20    1
    25    22    21   ar
    26    23    22   ar
    27    24    22    1
    28    25    23   ar
    29    26    25   ar
    30    27    26   ar
    31    27    21   ar
    32     1    28    1
    33     2    29    1
    34     6    30    1
    35    11    31    1
    36    11    32    1
    37    12    33    1
    38    12    34    1
    39    14    35    1
    40    15    36    1
    41    18    37    1
    42    19    38    1
    43    23    39    1
    44    25    40    1
    45    26    41    1
    46    27    42    1
