5OQ
 OpenBabel09282215253D

 47 50  0  0  0  0  0  0  0  0999 V2000
   38.0630  126.8330  131.4540 C   0  0  0  0  0  0  0  0  0  0  0  0
   37.9680  126.0950  132.6210 C   0  0  0  0  0  0  0  0  0  0  0  0
   37.1330  125.0230  132.7050 C   0  0  0  0  0  0  0  0  0  0  0  0
   34.7000  123.1760  130.6040 N   0  0  0  0  0  0  0  0  0  0  0  0
   36.3460  124.6370  131.5970 C   0  0  0  0  0  0  0  0  0  0  0  0
   36.4330  125.3790  130.3920 C   0  0  0  0  0  0  0  0  0  0  0  0
   37.3140  126.5040  130.3470 C   0  0  0  0  0  0  0  0  0  0  0  0
   35.6320  124.9800  129.3000 C   0  0  0  0  0  0  0  0  0  0  0  0
   34.7890  123.8760  129.4620 C   0  0  0  0  0  0  0  0  0  0  0  0
   35.4500  123.5470  131.6170 C   0  0  0  0  0  0  0  0  0  0  0  0
   33.9820  123.4390  128.4320 N   0  0  0  0  0  0  0  0  0  0  0  0
   34.3280  122.6160  127.3670 C   0  0  0  0  0  0  0  0  0  0  0  0
   34.9610  123.0960  126.2290 C   0  0  0  0  0  0  0  0  0  0  0  0
   35.2740  122.2390  125.1910 C   0  0  0  0  0  0  0  0  0  0  0  0
   34.9530  120.8940  125.2860 C   0  0  0  0  0  0  0  0  0  0  0  0
   34.3260  120.3990  126.4170 C   0  0  0  0  0  0  0  0  0  0  0  0
   34.0160  121.2590  127.4540 C   0  0  0  0  0  0  0  0  0  0  0  0
   35.1950  119.9630  124.3110 O   0  0  0  0  0  0  0  0  0  0  0  0
   36.5220  119.4630  124.1640 C   0  0  0  0  0  0  0  0  0  0  0  0
   33.4130  120.8840  128.6220 O   0  0  0  0  0  0  0  0  0  0  0  0
   33.9950  119.8120  129.3570 C   0  0  0  0  0  0  0  0  0  0  0  0
   37.3930  127.3490  129.1210 C   0  0  0  0  0  0  0  0  0  0  0  0
   36.6990  128.5100  128.8990 C   0  0  0  0  0  0  0  0  0  0  0  0
   37.0180  128.9230  127.6670 N   0  0  0  0  0  0  0  0  0  0  0  0
   37.8890  128.1090  127.0540 N   0  0  0  0  0  0  0  0  0  0  0  0
   36.5240  130.1050  126.9730 C   0  0  0  0  0  0  0  0  0  0  0  0
   38.1200  127.1540  127.9360 C   0  0  0  0  0  0  0  0  0  0  0  0
   38.7462  127.6940  131.4106 H   0  0  0  0  0  0  0  0  0  0  0  0
   38.5757  126.3786  133.4929 H   0  0  0  0  0  0  0  0  0  0  0  0
   37.0706  124.4526  133.6435 H   0  0  0  0  0  0  0  0  0  0  0  0
   35.6701  125.5243  128.3449 H   0  0  0  0  0  0  0  0  0  0  0  0
   35.3740  122.9660  132.5479 H   0  0  0  0  0  0  0  0  0  0  0  0
   33.0042  123.7619  128.4551 H   0  0  0  0  0  0  0  0  0  0  0  0
   35.2148  124.1636  126.1529 H   0  0  0  0  0  0  0  0  0  0  0  0
   35.7768  122.6235  124.2913 H   0  0  0  0  0  0  0  0  0  0  0  0
   34.0766  119.3301  126.4897 H   0  0  0  0  0  0  0  0  0  0  0  0
   36.9634  119.2967  125.1578 H   0  0  0  0  0  0  0  0  0  0  0  0
   36.4966  118.5128  123.6104 H   0  0  0  0  0  0  0  0  0  0  0  0
   37.1299  120.1937  123.6104 H   0  0  0  0  0  0  0  0  0  0  0  0
   33.8895  120.0064  130.4345 H   0  0  0  0  0  0  0  0  0  0  0  0
   33.4832  118.8723  129.1021 H   0  0  0  0  0  0  0  0  0  0  0  0
   35.0619  119.7293  129.1021 H   0  0  0  0  0  0  0  0  0  0  0  0
   36.0116  129.0069  129.5994 H   0  0  0  0  0  0  0  0  0  0  0  0
   36.2092  130.8583  127.7102 H   0  0  0  0  0  0  0  0  0  0  0  0
   37.3236  130.5209  126.3424 H   0  0  0  0  0  0  0  0  0  0  0  0
   35.6662  129.8282  126.3424 H   0  0  0  0  0  0  0  0  0  0  0  0
   38.8004  126.3072  127.7630 H   0  0  0  0  0  0  0  0  0  0  0  0
  1 28  1  0  0  0  0
  2  1  2  0  0  0  0
  2 29  1  0  0  0  0
  3  2  1  0  0  0  0
  3 30  1  0  0  0  0
  5  3  2  0  0  0  0
  6  5  1  0  0  0  0
  7  6  2  0  0  0  0
  7  1  1  0  0  0  0
  8  6  1  0  0  0  0
  8 31  1  0  0  0  0
  9  8  2  0  0  0  0
  9  4  1  0  0  0  0
 10  4  2  0  0  0  0
 10  5  1  0  0  0  0
 10 32  1  0  0  0  0
 11  9  1  0  0  0  0
 11 33  1  0  0  0  0
 12 11  1  0  0  0  0
 13 12  2  0  0  0  0
 13 34  1  0  0  0  0
 14 13  1  0  0  0  0
 14 35  1  0  0  0  0
 15 14  2  0  0  0  0
 16 15  1  0  0  0  0
 16 36  1  0  0  0  0
 17 16  2  0  0  0  0
 17 12  1  0  0  0  0
 18 15  1  0  0  0  0
 19 18  1  0  0  0  0
 19 37  1  0  0  0  0
 19 38  1  0  0  0  0
 19 39  1  0  0  0  0
 20 17  1  0  0  0  0
 21 20  1  0  0  0  0
 21 40  1  0  0  0  0
 21 41  1  0  0  0  0
 21 42  1  0  0  0  0
 22  7  1  0  0  0  0
 23 22  2  0  0  0  0
 23 43  1  0  0  0  0
 24 23  1  0  0  0  0
 25 24  1  0  0  0  0
 26 24  1  0  0  0  0
 26 44  1  0  0  0  0
 26 45  1  0  0  0  0
 26 46  1  0  0  0  0
 27 25  2  0  0  0  0
 27 22  1  0  0  0  0
 27 47  1  0  0  0  0
M  END
$$$$
