@<TRIPOS>MOLECULE
5OQ
 47 50 0 0 0
SMALL
GASTEIGER

@<TRIPOS>ATOM
      1 C          38.0630  126.8330  131.4540 C.ar    1  UNL1       -0.0533
      2 C          37.9680  126.0950  132.6210 C.ar    1  UNL1       -0.0605
      3 C          37.1330  125.0230  132.7050 C.ar    1  UNL1       -0.0525
      4 N          34.7000  123.1760  130.6040 N.ar    1  UNL1       -0.2396
      5 C          36.3460  124.6370  131.5970 C.ar    1  UNL1        0.0009
      6 C          36.4330  125.3790  130.3920 C.ar    1  UNL1       -0.0054
      7 C          37.3140  126.5040  130.3470 C.ar    1  UNL1       -0.0071
      8 C          35.6320  124.9800  129.3000 C.ar    1  UNL1       -0.0133
      9 C          34.7890  123.8760  129.4620 C.ar    1  UNL1        0.1235
     10 C          35.4500  123.5470  131.6170 C.ar    1  UNL1        0.0374
     11 N          33.9820  123.4390  128.4320 N.pl3   1  UNL1       -0.2966
     12 C          34.3280  122.6160  127.3670 C.ar    1  UNL1        0.0749
     13 C          34.9610  123.0960  126.2290 C.ar    1  UNL1       -0.0335
     14 C          35.2740  122.2390  125.1910 C.ar    1  UNL1       -0.0180
     15 C          34.9530  120.8940  125.2860 C.ar    1  UNL1        0.1237
     16 C          34.3260  120.3990  126.4170 C.ar    1  UNL1        0.0236
     17 C          34.0160  121.2590  127.4540 C.ar    1  UNL1        0.1446
     18 O          35.1950  119.9630  124.3110 O.3     1  UNL1       -0.4950
     19 C          36.5220  119.4630  124.1640 C.3     1  UNL1        0.0788
     20 O          33.4130  120.8840  128.6220 O.3     1  UNL1       -0.4931
     21 C          33.9950  119.8120  129.3570 C.3     1  UNL1        0.0789
     22 C          37.3930  127.3490  129.1210 C.ar    1  UNL1        0.0201
     23 C          36.6990  128.5100  128.8990 C.ar    1  UNL1        0.0329
     24 N          37.0180  128.9230  127.6670 N.ar    1  UNL1       -0.2739
     25 N          37.8890  128.1090  127.0540 N.ar    1  UNL1       -0.1793
     26 C          36.5240  130.1050  126.9730 C.3     1  UNL1        0.0302
     27 C          38.1200  127.1540  127.9360 C.ar    1  UNL1        0.0571
     28 H          38.7462  127.6940  131.4106 H       1  UNL1        0.0624
     29 H          38.5757  126.3786  133.4929 H       1  UNL1        0.0618
     30 H          37.0706  124.4526  133.6435 H       1  UNL1        0.0624
     31 H          35.6701  125.5243  128.3449 H       1  UNL1        0.0658
     32 H          35.3740  122.9660  132.5479 H       1  UNL1        0.0836
     33 H          33.0042  123.7619  128.4551 H       1  UNL1        0.1537
     34 H          35.2148  124.1636  126.1529 H       1  UNL1        0.0638
     35 H          35.7768  122.6235  124.2913 H       1  UNL1        0.0655
     36 H          34.0766  119.3301  126.4897 H       1  UNL1        0.0691
     37 H          36.9634  119.2967  125.1578 H       1  UNL1        0.0660
     38 H          36.4966  118.5128  123.6104 H       1  UNL1        0.0660
     39 H          37.1299  120.1937  123.6104 H       1  UNL1        0.0660
     40 H          33.8895  120.0064  130.4345 H       1  UNL1        0.0660
     41 H          33.4832  118.8723  129.1021 H       1  UNL1        0.0660
     42 H          35.0619  119.7293  129.1021 H       1  UNL1        0.0660
     43 H          36.0116  129.0069  129.5994 H       1  UNL1        0.0832
     44 H          36.2092  130.8583  127.7102 H       1  UNL1        0.0473
     45 H          37.3236  130.5209  126.3424 H       1  UNL1        0.0473
     46 H          35.6662  129.8282  126.3424 H       1  UNL1        0.0473
     47 H          38.8004  126.3072  127.7630 H       1  UNL1        0.0854
@<TRIPOS>BOND
     1     2     1   ar
     2     3     2   ar
     3     5     3   ar
     4     6     5   ar
     5     7     6   ar
     6     7     1   ar
     7     8     6   ar
     8     9     8   ar
     9     9     4   ar
    10    10     4   ar
    11    10     5   ar
    12    11     9    1
    13    12    11    1
    14    13    12   ar
    15    14    13   ar
    16    15    14   ar
    17    16    15   ar
    18    17    16   ar
    19    17    12   ar
    20    18    15    1
    21    19    18    1
    22    20    17    1
    23    21    20    1
    24    22     7    1
    25    23    22   ar
    26    24    23   ar
    27    25    24   ar
    28    26    24    1
    29    27    25   ar
    30    27    22   ar
    31     1    28    1
    32     2    29    1
    33     3    30    1
    34     8    31    1
    35    10    32    1
    36    11    33    1
    37    13    34    1
    38    14    35    1
    39    16    36    1
    40    19    37    1
    41    19    38    1
    42    19    39    1
    43    21    40    1
    44    21    41    1
    45    21    42    1
    46    23    43    1
    47    26    44    1
    48    26    45    1
    49    26    46    1
    50    27    47    1
