@<TRIPOS>MOLECULE
ZMA
 40 43 0 0 0
SMALL
GASTEIGER

@<TRIPOS>ATOM
      1 C          -5.5820    0.4840    1.1970 C.ar    1  LIG1       -0.0551
      2 C          -6.7750   -0.2120    1.2020 C.ar    1  LIG1       -0.0199
      3 C          -7.3730   -0.5690    0.0020 C.ar    1  LIG1        0.1169
      4 O          -8.5470   -1.2530    0.0030 O.3     1  LIG1       -0.5068
      5 C          -6.7710   -0.2260   -1.2000 C.ar    1  LIG1       -0.0199
      6 C          -5.5770    0.4700   -1.1990 C.ar    1  LIG1       -0.0551
      7 C          -4.9860    0.8300   -0.0020 C.ar    1  LIG1       -0.0457
      8 C          -3.6850    1.5900   -0.0030 C.3     1  LIG1       -0.0120
      9 C          -2.5170    0.6010   -0.0020 C.3     1  LIG1        0.0158
     10 N          -1.2520    1.3390   -0.0040 N.pl3   1  LIG1       -0.3130
     11 C          -0.0540    0.6550   -0.0030 C.ar    1  LIG1        0.2213
     12 N           1.0810    1.3340    0.0010 N.ar    1  LIG1       -0.1771
     13 N          -0.0620   -0.6800   -0.0000 N.ar    1  LIG1       -0.1812
     14 C           1.0700   -1.3610    0.0010 C.ar    1  LIG1        0.2198
     15 N           1.0530   -2.7310    0.0030 N.pl3   1  LIG1       -0.3273
     16 N           2.2560   -0.6870   -0.0010 N.ar    1  LIG1       -0.1644
     17 N           3.5990   -1.0820    0.0000 N.ar    1  LIG1       -0.1375
     18 C           2.2540    0.6840    0.0020 C.ar    1  LIG1        0.2593
     19 N           3.5140    1.0850    0.0050 N.ar    1  LIG1       -0.1861
     20 C           4.3250    0.0190   -0.0020 C.ar    1  LIG1        0.2189
     21 C           5.8020    0.0690   -0.0020 C.ar    1  LIG1        0.1734
     22 C           6.5620    1.1960   -0.0040 C.ar    1  LIG1       -0.0127
     23 C           7.9080    0.7780   -0.0030 C.ar    1  LIG1       -0.0232
     24 C           7.9030   -0.5700   -0.0010 C.ar    1  LIG1        0.0927
     25 O           6.6290   -0.9940    0.0060 O.2     1  LIG1       -0.4597
     26 H          -5.1170    0.7630    2.1310 H       1  LIG1        0.0621
     27 H          -7.2430   -0.4780    2.1380 H       1  LIG1        0.0654
     28 H          -9.3320   -0.6880   -0.0020 H       1  LIG1        0.2921
     29 H          -7.2340   -0.5030   -2.1350 H       1  LIG1        0.0654
     30 H          -5.1080    0.7370   -2.1340 H       1  LIG1        0.0621
     31 H          -3.6310    2.2150   -0.8950 H       1  LIG1        0.0328
     32 H          -3.6300    2.2180    0.8860 H       1  LIG1        0.0328
     33 H          -2.5720   -0.0240    0.8890 H       1  LIG1        0.0465
     34 H          -2.5720   -0.0270   -0.8910 H       1  LIG1        0.0465
     35 H          -1.2570    2.3090   -0.0050 H       1  LIG1        0.1489
     36 H           0.2070   -3.2060    0.0040 H       1  LIG1        0.1452
     37 H           1.8880   -3.2260    0.0040 H       1  LIG1        0.1452
     38 H           6.2040    2.2150   -0.0060 H       1  LIG1        0.0656
     39 H           8.7790    1.4170   -0.0040 H       1  LIG1        0.0649
     40 H           8.7780   -1.2030    0.0010 H       1  LIG1        0.1029
@<TRIPOS>BOND
     1     1     7   ar
     2     1     2   ar
     3     1    26    1
     4     2     3   ar
     5     2    27    1
     6     3     5   ar
     7     3     4    1
     8     4    28    1
     9     5     6   ar
    10     5    29    1
    11     6     7   ar
    12     6    30    1
    13     7     8    1
    14     8     9    1
    15     8    31    1
    16     8    32    1
    17     9    10    1
    18     9    33    1
    19     9    34    1
    20    10    11    1
    21    10    35    1
    22    11    12   ar
    23    11    13   ar
    24    12    18   ar
    25    13    14   ar
    26    14    16   ar
    27    14    15    1
    28    15    36    1
    29    15    37    1
    30    16    17   ar
    31    16    18   ar
    32    17    20   ar
    33    18    19   ar
    34    19    20   ar
    35    20    21    1
    36    21    22   ar
    37    21    25   ar
    38    22    23   ar
    39    22    38    1
    40    23    24   ar
    41    23    39    1
    42    24    25   ar
    43    24    40    1
