ZMA
  Mrv15b2303062314282D          

 26 29  0  0  0  0            999 V2000
    3.2736   -0.8551    0.0000 C   0  0  0  0  0  0  0  0  0  0  0  0
    3.9880   -0.4426    0.0000 C   0  0  0  0  0  0  0  0  0  0  0  0
    3.9880    0.3824    0.0000 C   0  0  0  0  0  0  0  0  0  0  0  0
    4.7025    0.7949    0.0000 O   0  5  0  0  0  0  0  0  0  0  0  0
    3.2736    0.7949    0.0000 C   0  0  0  0  0  0  0  0  0  0  0  0
    2.5591    0.3824    0.0000 C   0  0  0  0  0  0  0  0  0  0  0  0
    2.5591   -0.4426    0.0000 C   0  0  0  0  0  0  0  0  0  0  0  0
    1.8446   -0.8551    0.0000 C   0  0  0  0  0  0  0  0  0  0  0  0
    1.1301   -0.4426    0.0000 C   0  0  0  0  0  0  0  0  0  0  0  0
    0.4157   -0.8551    0.0000 N   0  0  0  0  0  0  0  0  0  0  0  0
   -0.2988   -0.4426    0.0000 C   0  0  0  0  0  0  0  0  0  0  0  0
   -1.0133   -0.8551    0.0000 N   0  0  0  0  0  0  0  0  0  0  0  0
   -0.2988    0.3824    0.0000 N   0  0  0  0  0  0  0  0  0  0  0  0
   -1.0133    0.7949    0.0000 C   0  0  0  0  0  0  0  0  0  0  0  0
   -1.0133    1.6199    0.0000 N   0  0  0  0  0  0  0  0  0  0  0  0
   -1.7277    0.3824    0.0000 N   0  0  0  0  0  0  0  0  0  0  0  0
   -2.5124    0.6374    0.0000 N   0  0  0  0  0  0  0  0  0  0  0  0
   -1.7277   -0.4426    0.0000 C   0  0  0  0  0  0  0  0  0  0  0  0
   -2.5124   -0.6975    0.0000 N   0  0  0  0  0  0  0  0  0  0  0  0
   -2.9973   -0.0301    0.0000 C   0  0  0  0  0  0  0  0  0  0  0  0
   -3.8223   -0.0301    0.0000 C   0  0  0  0  0  0  0  0  0  0  0  0
   -4.3072   -0.6975    0.0000 C   0  0  0  0  0  0  0  0  0  0  0  0
   -5.0918   -0.4426    0.0000 C   0  0  0  0  0  0  0  0  0  0  0  0
   -5.0918    0.3824    0.0000 C   0  0  0  0  0  0  0  0  0  0  0  0
   -4.3072    0.6374    0.0000 O   0  0  0  0  0  0  0  0  0  0  0  0
    5.4170    0.3824    0.0000 H   0  0  0  0  0  0  0  0  0  0  0  0
  1  7  4  0  0  0  0
  1  2  4  0  0  0  0
  2  3  4  0  0  0  0
  3  5  4  0  0  0  0
  3  4  1  0  0  0  0
  4 26  1  0  0  0  0
  5  6  4  0  0  0  0
  6  7  4  0  0  0  0
  7  8  1  0  0  0  0
  8  9  1  0  0  0  0
  9 10  1  0  0  0  0
 10 11  1  0  0  0  0
 11 12  4  0  0  0  0
 11 13  4  0  0  0  0
 12 18  4  0  0  0  0
 13 14  4  0  0  0  0
 14 16  4  0  0  0  0
 14 15  1  0  0  0  0
 16 17  4  0  0  0  0
 16 18  4  0  0  0  0
 17 20  4  0  0  0  0
 18 19  4  0  0  0  0
 19 20  4  0  0  0  0
 20 21  1  0  0  0  0
 21 22  4  0  0  0  0
 21 25  4  0  0  0  0
 22 23  4  0  0  0  0
 23 24  4  0  0  0  0
 24 25  4  0  0  0  0
M  CHG  1   4  -1
M  END
