ZMA
  -OEChem-10292120053D

 40 43  0     0  0  0  0  0  0999 V2000
   -5.5820    0.4840    1.1970 C   0  0  0  0  0  0  0  0  0  0  0  0
   -6.7750   -0.2120    1.2020 C   0  0  0  0  0  0  0  0  0  0  0  0
   -7.3730   -0.5690    0.0020 C   0  0  0  0  0  0  0  0  0  0  0  0
   -8.5470   -1.2530    0.0030 O   0  0  0  0  0  0  0  0  0  0  0  0
   -6.7710   -0.2260   -1.2000 C   0  0  0  0  0  0  0  0  0  0  0  0
   -5.5770    0.4700   -1.1990 C   0  0  0  0  0  0  0  0  0  0  0  0
   -4.9860    0.8300   -0.0020 C   0  0  0  0  0  0  0  0  0  0  0  0
   -3.6850    1.5900   -0.0030 C   0  0  0  0  0  0  0  0  0  0  0  0
   -2.5170    0.6010   -0.0020 C   0  0  0  0  0  0  0  0  0  0  0  0
   -1.2520    1.3390   -0.0040 N   0  0  0  0  0  0  0  0  0  0  0  0
   -0.0540    0.6550   -0.0030 C   0  0  0  0  0  0  0  0  0  0  0  0
    1.0810    1.3340    0.0010 N   0  0  0  0  0  0  0  0  0  0  0  0
   -0.0620   -0.6800   -0.0000 N   0  0  0  0  0  0  0  0  0  0  0  0
    1.0700   -1.3610    0.0010 C   0  0  0  0  0  0  0  0  0  0  0  0
    1.0530   -2.7310    0.0030 N   0  0  0  0  0  0  0  0  0  0  0  0
    2.2560   -0.6870   -0.0010 N   0  0  0  0  0  0  0  0  0  0  0  0
    3.5990   -1.0820    0.0000 N   0  0  0  0  0  0  0  0  0  0  0  0
    2.2540    0.6840    0.0020 C   0  0  0  0  0  0  0  0  0  0  0  0
    3.5140    1.0850    0.0050 N   0  0  0  0  0  0  0  0  0  0  0  0
    4.3250    0.0190   -0.0020 C   0  0  0  0  0  0  0  0  0  0  0  0
    5.8020    0.0690   -0.0020 C   0  0  0  0  0  0  0  0  0  0  0  0
    6.5620    1.1960   -0.0040 C   0  0  0  0  0  0  0  0  0  0  0  0
    7.9080    0.7780   -0.0030 C   0  0  0  0  0  0  0  0  0  0  0  0
    7.9030   -0.5700   -0.0010 C   0  0  0  0  0  0  0  0  0  0  0  0
    6.6290   -0.9940    0.0060 O   0  0  0  0  0  0  0  0  0  0  0  0
   -5.1170    0.7630    2.1310 H   0  0  0  0  0  0  0  0  0  0  0  0
   -7.2430   -0.4780    2.1380 H   0  0  0  0  0  0  0  0  0  0  0  0
   -9.3320   -0.6880   -0.0020 H   0  0  0  0  0  0  0  0  0  0  0  0
   -7.2340   -0.5030   -2.1350 H   0  0  0  0  0  0  0  0  0  0  0  0
   -5.1080    0.7370   -2.1340 H   0  0  0  0  0  0  0  0  0  0  0  0
   -3.6310    2.2150   -0.8950 H   0  0  0  0  0  0  0  0  0  0  0  0
   -3.6300    2.2180    0.8860 H   0  0  0  0  0  0  0  0  0  0  0  0
   -2.5720   -0.0240    0.8890 H   0  0  0  0  0  0  0  0  0  0  0  0
   -2.5720   -0.0270   -0.8910 H   0  0  0  0  0  0  0  0  0  0  0  0
   -1.2570    2.3090   -0.0050 H   0  0  0  0  0  0  0  0  0  0  0  0
    0.2070   -3.2060    0.0040 H   0  0  0  0  0  0  0  0  0  0  0  0
    1.8880   -3.2260    0.0040 H   0  0  0  0  0  0  0  0  0  0  0  0
    6.2040    2.2150   -0.0060 H   0  0  0  0  0  0  0  0  0  0  0  0
    8.7790    1.4170   -0.0040 H   0  0  0  0  0  0  0  0  0  0  0  0
    8.7780   -1.2030    0.0010 H   0  0  0  0  0  0  0  0  0  0  0  0
  1  7  2  0  0  0  0
  1  2  1  0  0  0  0
  1 26  1  0  0  0  0
  2  3  2  0  0  0  0
  2 27  1  0  0  0  0
  3  5  1  0  0  0  0
  3  4  1  0  0  0  0
  4 28  1  0  0  0  0
  5  6  2  0  0  0  0
  5 29  1  0  0  0  0
  6  7  1  0  0  0  0
  6 30  1  0  0  0  0
  7  8  1  0  0  0  0
  8  9  1  0  0  0  0
  8 31  1  0  0  0  0
  8 32  1  0  0  0  0
  9 10  1  0  0  0  0
  9 33  1  0  0  0  0
  9 34  1  0  0  0  0
 10 11  1  0  0  0  0
 10 35  1  0  0  0  0
 11 12  2  0  0  0  0
 11 13  1  0  0  0  0
 12 18  1  0  0  0  0
 13 14  2  0  0  0  0
 14 16  1  0  0  0  0
 14 15  1  0  0  0  0
 15 36  1  0  0  0  0
 15 37  1  0  0  0  0
 16 17  1  0  0  0  0
 16 18  1  0  0  0  0
 17 20  2  0  0  0  0
 18 19  2  0  0  0  0
 19 20  1  0  0  0  0
 20 21  1  0  0  0  0
 21 22  2  0  0  0  0
 21 25  1  0  0  0  0
 22 23  1  0  0  0  0
 22 38  1  0  0  0  0
 23 24  2  0  0  0  0
 23 39  1  0  0  0  0
 24 25  1  0  0  0  0
 24 40  1  0  0  0  0
M  END
> <OPENEYE_ISO_SMILES>
c1cc(oc1)c2nc3nc(nc(n3n2)N)NCCc4ccc(cc4)O

> <OPENEYE_INCHI>
InChI=1S/C16H15N7O2/c17-14-20-15(18-8-7-10-3-5-11(24)6-4-10)21-16-19-13(22-23(14)16)12-2-1-9-25-12/h1-6,9,24H,7-8H2,(H3,17,18,19,20,21,22)

> <OPENEYE_INCHIKEY>
PWTBZOIUWZOPFT-UHFFFAOYSA-N

> <FORMULA>
C16H15N7O2

$$$$
