ZST
  -OEChem-11122120053D

 41 44  0     0  0  0  0  0  0999 V2000
   -1.4350   -1.1710   -2.0570 C   0  0  0  0  0  0  0  0  0  0  0  0
   -2.1410   -1.8240   -1.3090 O   0  0  0  0  0  0  0  0  0  0  0  0
   -2.0290   -0.2600   -3.0430 C   0  0  0  0  0  0  0  0  0  0  0  0
   -1.1620    0.4770   -3.8800 C   0  0  0  0  0  0  0  0  0  0  0  0
    0.2800    0.2890   -3.7310 C   0  0  0  0  0  0  0  0  0  0  0  0
   -3.4090   -0.1040   -3.1670 C   0  0  0  0  0  0  0  0  0  0  0  0
   -3.9090    0.7640   -4.1110 C   0  0  0  0  0  0  0  0  0  0  0  0
   -3.0540    1.4830   -4.9370 C   0  0  0  0  0  0  0  0  0  0  0  0
   -1.6980    1.3460   -4.8330 C   0  0  0  0  0  0  0  0  0  0  0  0
   -0.0910   -1.2710   -1.9930 N   0  0  0  0  0  0  0  0  0  0  0  0
    0.7400   -0.5340   -2.8370 N   0  0  0  0  0  0  0  0  0  0  0  0
    0.5110   -2.1770   -1.0130 C   0  0  0  0  0  0  0  0  0  0  0  0
    0.7500   -1.4350    0.2760 C   0  0  0  0  0  0  0  0  0  0  0  0
    1.5790   -0.0340    2.3570 C   0  0  0  0  0  0  0  0  0  0  0  0
    0.2860   -0.6060    2.3980 C   0  0  0  0  0  0  0  0  0  0  0  0
    2.0890    0.7080    3.3940 C   0  0  0  0  0  0  0  0  0  0  0  0
    1.3200    0.9110    4.5250 C   0  0  0  0  0  0  0  0  0  0  0  0
    0.0480    0.3620    4.5920 C   0  0  0  0  0  0  0  0  0  0  0  0
   -0.4650   -0.3750    3.5710 C   0  0  0  0  0  0  0  0  0  0  0  0
   -0.0540   -1.2980    1.2910 N   0  0  0  0  0  0  0  0  0  0  0  0
    2.1630   -0.5490    0.7620 S   0  0  0  0  0  0  0  0  0  0  0  0
    1.2340    1.0550   -4.6110 C   0  0  0  0  0  0  0  0  0  0  0  0
    2.6520    0.6880   -4.2540 C   0  0  0  0  0  0  0  0  0  0  0  0
    2.8650   -0.1130   -3.3760 O   0  0  0  0  0  0  0  0  0  0  0  0
    3.6770    1.2510   -4.9130 O   0  0  0  0  0  0  0  0  0  0  0  0
   -0.7840    0.5870    5.8280 C   0  0  0  0  0  0  0  0  0  0  0  0
   -0.0640    1.3650    6.7400 F   0  0  0  0  0  0  0  0  0  0  0  0
   -1.9650    1.2510    5.4790 F   0  0  0  0  0  0  0  0  0  0  0  0
   -1.0970   -0.6450    6.4110 F   0  0  0  0  0  0  0  0  0  0  0  0
   -4.0800   -0.6610   -2.5290 H   0  0  0  0  0  0  0  0  0  0  0  0
   -4.9770    0.8880   -4.2110 H   0  0  0  0  0  0  0  0  0  0  0  0
   -3.4660    2.1590   -5.6710 H   0  0  0  0  0  0  0  0  0  0  0  0
   -1.0440    1.9100   -5.4810 H   0  0  0  0  0  0  0  0  0  0  0  0
   -0.1620   -3.0150   -0.8300 H   0  0  0  0  0  0  0  0  0  0  0  0
    1.4590   -2.5520   -1.3980 H   0  0  0  0  0  0  0  0  0  0  0  0
    3.0810    1.1290    3.3260 H   0  0  0  0  0  0  0  0  0  0  0  0
    1.7070    1.4930    5.3490 H   0  0  0  0  0  0  0  0  0  0  0  0
   -1.4590   -0.7880    3.6580 H   0  0  0  0  0  0  0  0  0  0  0  0
    1.0880    2.1250   -4.4610 H   0  0  0  0  0  0  0  0  0  0  0  0
    1.0460    0.8050   -5.6550 H   0  0  0  0  0  0  0  0  0  0  0  0
    4.5860    1.0150   -4.6840 H   0  0  0  0  0  0  0  0  0  0  0  0
  1  2  2  0  0  0  0
  1  3  1  0  0  0  0
  1 10  1  0  0  0  0
  3  4  2  0  0  0  0
  3  6  1  0  0  0  0
  4  5  1  0  0  0  0
  4  9  1  0  0  0  0
  5 11  2  0  0  0  0
  5 22  1  0  0  0  0
  6  7  2  0  0  0  0
  6 30  1  0  0  0  0
  7  8  1  0  0  0  0
  7 31  1  0  0  0  0
  8  9  2  0  0  0  0
  8 32  1  0  0  0  0
  9 33  1  0  0  0  0
 10 11  1  0  0  0  0
 10 12  1  0  0  0  0
 12 13  1  0  0  0  0
 12 34  1  0  0  0  0
 12 35  1  0  0  0  0
 13 20  2  0  0  0  0
 13 21  1  0  0  0  0
 14 15  2  0  0  0  0
 14 16  1  0  0  0  0
 14 21  1  0  0  0  0
 15 19  1  0  0  0  0
 15 20  1  0  0  0  0
 16 17  2  0  0  0  0
 16 36  1  0  0  0  0
 17 18  1  0  0  0  0
 17 37  1  0  0  0  0
 18 19  2  0  0  0  0
 18 26  1  0  0  0  0
 19 38  1  0  0  0  0
 22 23  1  0  0  0  0
 22 39  1  0  0  0  0
 22 40  1  0  0  0  0
 23 24  2  0  0  0  0
 23 25  1  0  0  0  0
 25 41  1  0  0  0  0
 26 27  1  0  0  0  0
 26 28  1  0  0  0  0
 26 29  1  0  0  0  0
M  END
> <OPENEYE_ISO_SMILES>
c1ccc2c(c1)c(nn(c2=O)Cc3nc4cc(ccc4s3)C(F)(F)F)CC(=O)O

> <OPENEYE_INCHI>
InChI=1S/C19H12F3N3O3S/c20-19(21,22)10-5-6-15-14(7-10)23-16(29-15)9-25-18(28)12-4-2-1-3-11(12)13(24-25)8-17(26)27/h1-7H,8-9H2,(H,26,27)

> <OPENEYE_INCHIKEY>
BCSVCWVQNOXFGL-UHFFFAOYSA-N

> <FORMULA>
C19H12F3N3O3S

$$$$
