@<TRIPOS>MOLECULE
ZST
 41 44 0 0 0
SMALL
GASTEIGER

@<TRIPOS>ATOM
      1 C          -1.4350   -1.1710   -2.0570 C.ar    1  LIG1        0.2754
      2 O          -2.1410   -1.8240   -1.3090 O.2     1  LIG1       -0.2655
      3 C          -2.0290   -0.2600   -3.0430 C.ar    1  LIG1        0.0498
      4 C          -1.1620    0.4770   -3.8800 C.ar    1  LIG1        0.0108
      5 C           0.2800    0.2890   -3.7310 C.ar    1  LIG1        0.0802
      6 C          -3.4090   -0.1040   -3.1670 C.ar    1  LIG1       -0.0487
      7 C          -3.9090    0.7640   -4.1110 C.ar    1  LIG1       -0.0610
      8 C          -3.0540    1.4830   -4.9370 C.ar    1  LIG1       -0.0611
      9 C          -1.6980    1.3460   -4.8330 C.ar    1  LIG1       -0.0521
     10 N          -0.0910   -1.2710   -1.9930 N.ar    1  LIG1       -0.2223
     11 N           0.7400   -0.5340   -2.8370 N.ar    1  LIG1       -0.1717
     12 C           0.5110   -2.1770   -1.0130 C.3     1  LIG1        0.0937
     13 C           0.7500   -1.4350    0.2760 C.ar    1  LIG1        0.1009
     14 C           1.5790   -0.0340    2.3570 C.ar    1  LIG1        0.0393
     15 C           0.2860   -0.6060    2.3980 C.ar    1  LIG1        0.0791
     16 C           2.0890    0.7080    3.3940 C.ar    1  LIG1       -0.0454
     17 C           1.3200    0.9110    4.5250 C.ar    1  LIG1       -0.0489
     18 C           0.0480    0.3620    4.5920 C.ar    1  LIG1        0.0569
     19 C          -0.4650   -0.3750    3.5710 C.ar    1  LIG1       -0.0236
     20 N          -0.0540   -1.2980    1.2910 N.ar    1  LIG1       -0.2421
     21 S           2.1630   -0.5490    0.7620 S.2     1  LIG1       -0.0703
     22 C           1.2340    1.0550   -4.6110 C.3     1  LIG1        0.0892
     23 C           2.6520    0.6880   -4.2540 C.2     1  LIG1        0.3107
     24 O           2.8650   -0.1130   -3.3760 O.2     1  LIG1       -0.2506
     25 O           3.6770    1.2510   -4.9130 O.3     1  LIG1       -0.4803
     26 C          -0.7840    0.5870    5.8280 C.3     1  LIG1        0.4175
     27 F          -0.0640    1.3650    6.7400 F       1  LIG1       -0.1659
     28 F          -1.9650    1.2510    5.4790 F       1  LIG1       -0.1659
     29 F          -1.0970   -0.6450    6.4110 F       1  LIG1       -0.1659
     30 H          -4.0800   -0.6610   -2.5290 H       1  LIG1        0.0625
     31 H          -4.9770    0.8880   -4.2110 H       1  LIG1        0.0618
     32 H          -3.4660    2.1590   -5.6710 H       1  LIG1        0.0618
     33 H          -1.0440    1.9100   -5.4810 H       1  LIG1        0.0624
     34 H          -0.1620   -3.0150   -0.8300 H       1  LIG1        0.0580
     35 H           1.4590   -2.5520   -1.3980 H       1  LIG1        0.0580
     36 H           3.0810    1.1290    3.3260 H       1  LIG1        0.0629
     37 H           1.7070    1.4930    5.3490 H       1  LIG1        0.0623
     38 H          -1.4590   -0.7880    3.6580 H       1  LIG1        0.0645
     39 H           1.0880    2.1250   -4.4610 H       1  LIG1        0.0442
     40 H           1.0460    0.8050   -5.6550 H       1  LIG1        0.0442
     41 H           4.5860    1.0150   -4.6840 H       1  LIG1        0.2951
@<TRIPOS>BOND
     1     1     2    2
     2     1     3   ar
     3     1    10   ar
     4     3     4   ar
     5     3     6   ar
     6     4     5   ar
     7     4     9   ar
     8     5    11   ar
     9     5    22    1
    10     6     7   ar
    11     6    30    1
    12     7     8   ar
    13     7    31    1
    14     8     9   ar
    15     8    32    1
    16     9    33    1
    17    10    11   ar
    18    10    12    1
    19    12    13    1
    20    12    34    1
    21    12    35    1
    22    13    20   ar
    23    13    21   ar
    24    14    15   ar
    25    14    16   ar
    26    14    21   ar
    27    15    19   ar
    28    15    20   ar
    29    16    17   ar
    30    16    36    1
    31    17    18   ar
    32    17    37    1
    33    18    19   ar
    34    18    26    1
    35    19    38    1
    36    22    23    1
    37    22    39    1
    38    22    40    1
    39    23    24    2
    40    23    25    1
    41    25    41    1
    42    26    27    1
    43    26    28    1
    44    26    29    1
