ZST
  Mrv15b2303062314182D          

 29 32  0  0  0  0            999 V2000
   -2.1641    0.1702    0.0000 C   0  0  0  0  0  0  0  0  0  0  0  0
   -2.5766    0.8847    0.0000 O   0  0  0  0  0  0  0  0  0  0  0  0
   -2.5766   -0.5442    0.0000 C   0  0  0  0  0  0  0  0  0  0  0  0
   -2.1641   -1.2587    0.0000 C   0  0  0  0  0  0  0  0  0  0  0  0
   -1.3391   -1.2587    0.0000 C   0  0  0  0  0  0  0  0  0  0  0  0
   -3.4016   -0.5442    0.0000 C   0  0  0  0  0  0  0  0  0  0  0  0
   -3.8141   -1.2587    0.0000 C   0  0  0  0  0  0  0  0  0  0  0  0
   -3.4016   -1.9732    0.0000 C   0  0  0  0  0  0  0  0  0  0  0  0
   -2.5766   -1.9732    0.0000 C   0  0  0  0  0  0  0  0  0  0  0  0
   -1.3391    0.1702    0.0000 N   0  0  0  0  0  0  0  0  0  0  0  0
   -0.9266   -0.5442    0.0000 N   0  0  0  0  0  0  0  0  0  0  0  0
   -0.9266    0.8847    0.0000 C   0  0  0  0  0  0  0  0  0  0  0  0
   -0.1016    0.8847    0.0000 C   0  0  0  0  0  0  0  0  0  0  0  0
    1.1679    0.4722    0.0000 C   0  0  0  0  0  0  0  0  0  0  0  0
    1.1679    1.2972    0.0000 C   0  0  0  0  0  0  0  0  0  0  0  0
    1.8824    0.0597    0.0000 C   0  0  0  0  0  0  0  0  0  0  0  0
    2.5969    0.4722    0.0000 C   0  0  0  0  0  0  0  0  0  0  0  0
    2.5969    1.2972    0.0000 C   0  0  0  0  0  0  0  0  0  0  0  0
    1.8824    1.7097    0.0000 C   0  0  0  0  0  0  0  0  0  0  0  0
    0.3833    1.5521    0.0000 N   0  0  0  0  0  0  0  0  0  0  0  0
    0.3833    0.2173    0.0000 S   0  0  0  0  0  0  0  0  0  0  0  0
   -0.9266   -1.9732    0.0000 C   0  0  0  0  0  0  0  0  0  0  0  0
   -0.1016   -1.9732    0.0000 C   0  0  0  0  0  0  0  0  0  0  0  0
    0.3109   -1.2587    0.0000 O   0  0  0  0  0  0  0  0  0  0  0  0
    0.3109   -2.6877    0.0000 O   0  0  0  0  0  0  0  0  0  0  0  0
    3.3113    1.7097    0.0000 C   0  0  0  0  0  0  0  0  0  0  0  0
    4.0258    2.1222    0.0000 F   0  0  0  0  0  0  0  0  0  0  0  0
    3.7238    0.9952    0.0000 F   0  0  0  0  0  0  0  0  0  0  0  0
    2.8988    2.4242    0.0000 F   0  0  0  0  0  0  0  0  0  0  0  0
  1  2  2  0  0  0  0
  1  3  4  0  0  0  0
  1 10  4  0  0  0  0
  3  4  4  0  0  0  0
  3  6  4  0  0  0  0
  4  5  4  0  0  0  0
  4  9  4  0  0  0  0
  5 11  4  0  0  0  0
  5 22  1  0  0  0  0
  6  7  4  0  0  0  0
  7  8  4  0  0  0  0
  8  9  4  0  0  0  0
 10 11  4  0  0  0  0
 10 12  1  0  0  0  0
 12 13  1  0  0  0  0
 13 20  4  0  0  0  0
 13 21  4  0  0  0  0
 14 15  4  0  0  0  0
 14 16  4  0  0  0  0
 14 21  4  0  0  0  0
 15 19  4  0  0  0  0
 15 20  4  0  0  0  0
 16 17  4  0  0  0  0
 17 18  4  0  0  0  0
 18 19  4  0  0  0  0
 18 26  1  0  0  0  0
 22 23  1  0  0  0  0
 23 24  2  0  0  0  0
 23 25  1  0  0  0  0
 26 27  1  0  0  0  0
 26 28  1  0  0  0  0
 26 29  1  0  0  0  0
M  END
