ID5
  -OEChem-02242319243D

 38 40  0     0  0  0  0  0  0999 V2000
   -1.6440   -0.0020    4.8430 C   0  0  0  0  0  0  0  0  0  0  0  0
   -1.9720   -0.1730    2.0860 C   0  0  0  0  0  0  0  0  0  0  0  0
   -0.5280    0.0090    4.0210 C   0  0  0  0  0  0  0  0  0  0  0  0
   -2.9100   -0.0990    4.2920 C   0  0  0  0  0  0  0  0  0  0  0  0
   -3.0710   -0.1840    2.9150 C   0  0  0  0  0  0  0  0  0  0  0  0
   -0.6880   -0.0710    2.6300 C   0  0  0  0  0  0  0  0  0  0  0  0
   -0.6810    1.8870   -7.2020 F   0  0  0  0  0  0  0  0  0  0  0  0
   -3.9940   -0.1110    5.0970 F   0  0  0  0  0  0  0  0  0  0  0  0
    0.4910   -0.0580    1.7470 C   0  0  0  0  0  0  0  0  0  0  0  0
    1.0610   -0.2400   -1.9010 C   0  0  0  0  0  0  0  0  0  0  0  0
   -0.1030   -2.6260   -5.8920 F   0  0  0  0  0  0  0  0  0  0  0  0
    0.7120    0.1040    4.5590 O   0  0  0  0  0  0  0  0  0  0  0  0
    1.6060    0.0310    2.2230 O   0  0  0  0  0  0  0  0  0  0  0  0
    1.5070   -0.1320   -0.4660 C   0  0  0  0  0  0  0  0  0  0  0  0
    0.5430    0.1740    5.9770 C   0  0  0  0  0  0  0  0  0  0  0  0
    0.7610    0.7190   -2.7290 N   0  0  0  0  0  0  0  0  0  0  0  0
    0.8170   -1.6750   -2.8480 S   0  0  0  0  0  0  0  0  0  0  0  0
    0.0570    2.7370   -4.7430 F   0  0  0  0  0  0  0  0  0  0  0  0
    0.3150   -0.8800   -4.3540 C   0  0  0  0  0  0  0  0  0  0  0  0
   -0.3510    0.9790   -6.2580 C   0  0  0  0  0  0  0  0  0  0  0  0
    0.3750    0.4850   -4.0020 C   0  0  0  0  0  0  0  0  0  0  0  0
   -0.0620   -1.3060   -5.6060 C   0  0  0  0  0  0  0  0  0  0  0  0
   -0.3990   -0.3730   -6.5710 C   0  0  0  0  0  0  0  0  0  0  0  0
    0.0240    1.4130   -5.0100 C   0  0  0  0  0  0  0  0  0  0  0  0
    1.8930    0.2820    6.6380 C   0  0  0  0  0  0  0  0  0  0  0  0
    1.9800    0.3610    7.9750 O   0  0  0  0  0  0  0  0  0  0  0  0
    2.8960    0.2960    5.9650 O   0  0  0  0  0  0  0  0  0  0  0  0
    0.3340   -0.1440    0.4110 N   0  0  0  0  0  0  0  0  0  0  0  0
   -1.5260    0.0630    5.9140 H   0  0  0  0  0  0  0  0  0  0  0  0
   -2.1010   -0.2400    1.0160 H   0  0  0  0  0  0  0  0  0  0  0  0
   -4.0620   -0.2600    2.4940 H   0  0  0  0  0  0  0  0  0  0  0  0
    2.0560    0.7990   -0.3250 H   0  0  0  0  0  0  0  0  0  0  0  0
    2.1530   -0.9750   -0.2210 H   0  0  0  0  0  0  0  0  0  0  0  0
    0.0370   -0.7240    6.3270 H   0  0  0  0  0  0  0  0  0  0  0  0
   -0.0540    1.0500    6.2280 H   0  0  0  0  0  0  0  0  0  0  0  0
   -0.6970   -0.6940   -7.5580 H   0  0  0  0  0  0  0  0  0  0  0  0
    2.8460    0.4300    8.4000 H   0  0  0  0  0  0  0  0  0  0  0  0
   -0.5550   -0.2160    0.0310 H   0  0  0  0  0  0  0  0  0  0  0  0
  1  3  2  0  0  0  0
  1  4  1  0  0  0  0
  1 29  1  0  0  0  0
  2  5  1  0  0  0  0
  2  6  2  0  0  0  0
  2 30  1  0  0  0  0
  3  6  1  0  0  0  0
  3 12  1  0  0  0  0
  4  5  2  0  0  0  0
  4  8  1  0  0  0  0
  5 31  1  0  0  0  0
  6  9  1  0  0  0  0
  7 20  1  0  0  0  0
  9 13  2  0  0  0  0
  9 28  1  0  0  0  0
 10 14  1  0  0  0  0
 10 16  2  0  0  0  0
 10 17  1  0  0  0  0
 11 22  1  0  0  0  0
 12 15  1  0  0  0  0
 14 28  1  0  0  0  0
 14 32  1  0  0  0  0
 14 33  1  0  0  0  0
 15 25  1  0  0  0  0
 15 34  1  0  0  0  0
 15 35  1  0  0  0  0
 16 21  1  0  0  0  0
 17 19  1  0  0  0  0
 18 24  1  0  0  0  0
 19 21  2  0  0  0  0
 19 22  1  0  0  0  0
 20 23  1  0  0  0  0
 20 24  2  0  0  0  0
 21 24  1  0  0  0  0
 22 23  2  0  0  0  0
 23 36  1  0  0  0  0
 25 26  1  0  0  0  0
 25 27  2  0  0  0  0
 26 37  1  0  0  0  0
 28 38  1  0  0  0  0
M  END
> <OPENEYE_ISO_SMILES>
c1cc(c(cc1F)OCC(=O)O)C(=O)NCc2nc3c(c(cc(c3s2)F)F)F

> <OPENEYE_INCHI>
InChI=1S/C17H10F4N2O4S/c18-7-1-2-8(11(3-7)27-6-13(24)25)17(26)22-5-12-23-15-14(21)9(19)4-10(20)16(15)28-12/h1-4H,5-6H2,(H,22,26)(H,24,25)

> <OPENEYE_INCHIKEY>
ZCAGEXZTORJQDZ-UHFFFAOYSA-N

> <FORMULA>
C17H10F4N2O4S

$$$$
