ID5
  Mrv15b2303062314242D          

 28 30  0  0  0  0            999 V2000
   -2.6288   -1.4826    0.0000 C   0  0  0  0  0  0  0  0  0  0  0  0
   -0.9788   -1.4826    0.0000 C   0  0  0  0  0  0  0  0  0  0  0  0
   -2.2163   -0.7681    0.0000 C   0  0  0  0  0  0  0  0  0  0  0  0
   -2.2163   -2.1971    0.0000 C   0  0  0  0  0  0  0  0  0  0  0  0
   -1.3913   -2.1971    0.0000 C   0  0  0  0  0  0  0  0  0  0  0  0
   -1.3913   -0.7681    0.0000 C   0  0  0  0  0  0  0  0  0  0  0  0
    4.4966    1.4858    0.0000 F   0  0  0  0  0  0  0  0  0  0  0  0
   -2.6288   -2.9115    0.0000 F   0  0  0  0  0  0  0  0  0  0  0  0
   -0.9788   -0.0537    0.0000 C   0  0  0  0  0  0  0  0  0  0  0  0
    1.0837    0.6608    0.0000 C   0  0  0  0  0  0  0  0  0  0  0  0
    3.0677   -0.9892    0.0000 F   0  0  0  0  0  0  0  0  0  0  0  0
   -2.6288   -0.0537    0.0000 O   0  0  0  0  0  0  0  0  0  0  0  0
   -1.3913    0.6608    0.0000 O   0  0  0  0  0  0  0  0  0  0  0  0
    0.2587    0.6608    0.0000 C   0  0  0  0  0  0  0  0  0  0  0  0
   -3.4538   -0.0537    0.0000 C   0  0  0  0  0  0  0  0  0  0  0  0
    1.5686    1.3283    0.0000 N   0  0  0  0  0  0  0  0  0  0  0  0
    1.5686   -0.0066    0.0000 S   0  0  0  0  0  0  0  0  0  0  0  0
    3.0677    2.3108    0.0000 F   0  0  0  0  0  0  0  0  0  0  0  0
    2.3532    0.2483    0.0000 C   0  0  0  0  0  0  0  0  0  0  0  0
    3.7822    1.0733    0.0000 C   0  0  0  0  0  0  0  0  0  0  0  0
    2.3532    1.0733    0.0000 C   0  0  0  0  0  0  0  0  0  0  0  0
    3.0677   -0.1642    0.0000 C   0  0  0  0  0  0  0  0  0  0  0  0
    3.7822    0.2483    0.0000 C   0  0  0  0  0  0  0  0  0  0  0  0
    3.0677    1.4858    0.0000 C   0  0  0  0  0  0  0  0  0  0  0  0
   -3.8663    0.6608    0.0000 C   0  0  0  0  0  0  0  0  0  0  0  0
   -4.6913    0.6608    0.0000 O   0  0  0  0  0  0  0  0  0  0  0  0
   -3.4538    1.3753    0.0000 O   0  0  0  0  0  0  0  0  0  0  0  0
   -0.1538   -0.0537    0.0000 N   0  0  0  0  0  0  0  0  0  0  0  0
  1  3  4  0  0  0  0
  1  4  4  0  0  0  0
  2  5  4  0  0  0  0
  2  6  4  0  0  0  0
  3  6  4  0  0  0  0
  3 12  1  0  0  0  0
  4  5  4  0  0  0  0
  4  8  1  0  0  0  0
  6  9  1  0  0  0  0
  7 20  1  0  0  0  0
  9 13  2  0  0  0  0
  9 28  1  0  0  0  0
 10 14  1  0  0  0  0
 10 16  4  0  0  0  0
 10 17  4  0  0  0  0
 11 22  1  0  0  0  0
 12 15  1  0  0  0  0
 14 28  1  0  0  0  0
 15 25  1  0  0  0  0
 16 21  4  0  0  0  0
 17 19  4  0  0  0  0
 18 24  1  0  0  0  0
 19 21  4  0  0  0  0
 19 22  4  0  0  0  0
 20 23  4  0  0  0  0
 20 24  4  0  0  0  0
 21 24  4  0  0  0  0
 22 23  4  0  0  0  0
 25 26  1  0  0  0  0
 25 27  2  0  0  0  0
M  END
