@<TRIPOS>MOLECULE
ID5
 38 40 0 0 0
SMALL
GASTEIGER

@<TRIPOS>ATOM
      1 C          -1.6440   -0.0020    4.8430 C.ar    1  LIG1        0.0161
      2 C          -1.9720   -0.1730    2.0860 C.ar    1  LIG1       -0.0434
      3 C          -0.5280    0.0090    4.0210 C.ar    1  LIG1        0.1361
      4 C          -2.9100   -0.0990    4.2920 C.ar    1  LIG1        0.1269
      5 C          -3.0710   -0.1840    2.9150 C.ar    1  LIG1       -0.0255
      6 C          -0.6880   -0.0710    2.6300 C.ar    1  LIG1        0.0785
      7 F          -0.6810    1.8870   -7.2020 F       1  LIG1       -0.2023
      8 F          -3.9940   -0.1110    5.0970 F       1  LIG1       -0.2054
      9 C           0.4910   -0.0580    1.7470 C.2     1  LIG1        0.2479
     10 C           1.0610   -0.2400   -1.9010 C.ar    1  LIG1        0.0968
     11 F          -0.1030   -2.6260   -5.8920 F       1  LIG1       -0.2042
     12 O           0.7120    0.1040    4.5590 O.3     1  LIG1       -0.4800
     13 O           1.6060    0.0310    2.2230 O.2     1  LIG1       -0.2701
     14 C           1.5070   -0.1320   -0.4660 C.3     1  LIG1        0.0607
     15 C           0.5430    0.1740    5.9770 C.3     1  LIG1        0.1857
     16 N           0.7610    0.7190   -2.7290 N.ar    1  LIG1       -0.2393
     17 S           0.8170   -1.6750   -2.8480 S.2     1  LIG1       -0.0675
     18 F           0.0570    2.7370   -4.7430 F       1  LIG1       -0.2002
     19 C           0.3150   -0.8800   -4.3540 C.ar    1  LIG1        0.0774
     20 C          -0.3510    0.9790   -6.2580 C.ar    1  LIG1        0.1633
     21 C           0.3750    0.4850   -4.0020 C.ar    1  LIG1        0.1192
     22 C          -0.0620   -1.3060   -5.6060 C.ar    1  LIG1        0.1420
     23 C          -0.3990   -0.3730   -6.5710 C.ar    1  LIG1        0.0129
     24 C           0.0240    1.4130   -5.0100 C.ar    1  LIG1        0.1849
     25 C           1.8930    0.2820    6.6380 C.2     1  LIG1        0.3427
     26 O           1.9800    0.3610    7.9750 O.3     1  LIG1       -0.4783
     27 O           2.8960    0.2960    5.9650 O.2     1  LIG1       -0.2472
     28 N           0.3340   -0.1440    0.4110 N.am    1  LIG1       -0.3051
     29 H          -1.5260    0.0630    5.9140 H       1  LIG1        0.0683
     30 H          -2.1010   -0.2400    1.0160 H       1  LIG1        0.0627
     31 H          -4.0620   -0.2600    2.4940 H       1  LIG1        0.0646
     32 H           2.0560    0.7990   -0.3250 H       1  LIG1        0.0532
     33 H           2.1530   -0.9750   -0.2210 H       1  LIG1        0.0532
     34 H           0.0370   -0.7240    6.3270 H       1  LIG1        0.0815
     35 H          -0.0540    1.0500    6.2280 H       1  LIG1        0.0815
     36 H          -0.6970   -0.6940   -7.5580 H       1  LIG1        0.0676
     37 H           2.8460    0.4300    8.4000 H       1  LIG1        0.2952
     38 H          -0.5550   -0.2160    0.0310 H       1  LIG1        0.1494
@<TRIPOS>BOND
     1     1     3   ar
     2     1     4   ar
     3     1    29    1
     4     2     5   ar
     5     2     6   ar
     6     2    30    1
     7     3     6   ar
     8     3    12    1
     9     4     5   ar
    10     4     8    1
    11     5    31    1
    12     6     9    1
    13     7    20    1
    14     9    13    2
    15     9    28   am
    16    10    14    1
    17    10    16   ar
    18    10    17   ar
    19    11    22    1
    20    12    15    1
    21    14    28    1
    22    14    32    1
    23    14    33    1
    24    15    25    1
    25    15    34    1
    26    15    35    1
    27    16    21   ar
    28    17    19   ar
    29    18    24    1
    30    19    21   ar
    31    19    22   ar
    32    20    23   ar
    33    20    24   ar
    34    21    24   ar
    35    22    23   ar
    36    23    36    1
    37    25    26    1
    38    25    27    2
    39    26    37    1
    40    28    38    1
