MIN
 OpenBabel11082210463D

 62 64  0  0  0  0  0  0  0  0999 V2000
   16.9100  -13.2980   20.3640 C   0  0  1  0  0  0  0  0  0  0  0  0
   17.5550  -14.1980   21.3230 N   0  0  0  0  0  0  0  0  0  0  0  0
   17.6140  -13.5180   19.0510 C   0  0  0  0  0  0  0  0  0  0  0  0
   18.9010  -14.1840   19.4290 C   0  0  0  0  0  0  0  0  0  0  0  0
   18.5490  -15.0210   20.6360 C   0  0  0  0  0  0  0  0  0  0  0  0
   17.1330  -14.3800   22.5790 C   0  0  0  0  0  0  0  0  0  0  0  0
   16.2620  -13.6520   23.0780 O   0  0  0  0  0  0  0  0  0  0  0  0
   15.4220  -13.6510   20.2510 C   0  0  0  0  0  0  0  0  0  0  0  0
   14.4770  -12.7420   20.5500 N   0  0  0  0  0  0  0  0  0  0  0  0
   15.1200  -14.7990   19.9170 O   0  0  0  0  0  0  0  0  0  0  0  0
   13.0440  -13.0150   20.4270 C   0  0  0  0  0  0  0  0  0  0  0  0
   12.2580  -12.3620   21.5020 C   0  0  2  0  0  0  0  0  0  0  0  0
   12.5870  -10.8710   21.5780 C   0  0  0  0  0  0  0  0  0  0  0  0
   11.8410  -10.2320   22.7230 C   0  0  0  0  0  0  0  0  0  0  0  0
   12.1340  -10.9130   24.0270 C   0  0  1  0  0  0  0  0  0  0  0  0
   11.3340  -10.2770   25.0330 N   0  0  0  0  0  0  0  0  0  0  0  0
   11.7690  -12.4120   23.9030 C   0  0  0  0  0  0  0  0  0  0  0  0
   12.5500  -13.0960   22.7970 C   0  0  0  0  0  0  0  0  0  0  0  0
   17.7400  -15.4650   23.4650 C   0  0  2  0  0  0  0  0  0  0  0  0
   16.8930  -16.6610   23.4850 N   0  0  0  0  0  0  0  0  0  0  0  0
   17.2220  -17.8100   22.6210 C   0  0  0  0  0  0  0  0  0  0  0  0
   17.9010  -14.9460   24.9280 C   0  0  0  0  0  0  0  0  0  0  0  0
   19.2110  -15.2520   25.6250 C   0  0  0  0  0  0  0  0  0  0  0  0
   19.6170  -16.5600   25.7530 C   0  0  0  0  0  0  0  0  0  0  0  0
   20.8330  -16.8290   26.3350 C   0  0  0  0  0  0  0  0  0  0  0  0
   21.6080  -15.7900   26.7990 C   0  0  0  0  0  0  0  0  0  0  0  0
   21.1820  -14.4840   26.6740 C   0  0  0  0  0  0  0  0  0  0  0  0
   19.9750  -14.2070   26.0960 C   0  0  0  0  0  0  0  0  0  0  0  0
   16.9765  -12.2445   20.6733 H   0  0  0  0  0  0  0  0  0  0  0  0
   17.0177  -14.1672   18.3930 H   0  0  0  0  0  0  0  0  0  0  0  0
   17.7723  -12.5812   18.4965 H   0  0  0  0  0  0  0  0  0  0  0  0
   19.2669  -14.8185   18.6083 H   0  0  0  0  0  0  0  0  0  0  0  0
   19.7023  -13.4603   19.6392 H   0  0  0  0  0  0  0  0  0  0  0  0
   18.1223  -15.9894   20.3357 H   0  0  0  0  0  0  0  0  0  0  0  0
   19.4184  -15.2676   21.2632 H   0  0  0  0  0  0  0  0  0  0  0  0
   14.7746  -11.8128   20.8801 H   0  0  0  0  0  0  0  0  0  0  0  0
   12.6937  -12.6405   19.4538 H   0  0  0  0  0  0  0  0  0  0  0  0
   12.8974  -14.1018   20.5123 H   0  0  0  0  0  0  0  0  0  0  0  0
   11.1790  -12.4209   21.2964 H   0  0  0  0  0  0  0  0  0  0  0  0
   13.6687  -10.7448   21.7332 H   0  0  0  0  0  0  0  0  0  0  0  0
   12.2843  -10.3876   20.6374 H   0  0  0  0  0  0  0  0  0  0  0  0
   12.1398   -9.1760   22.7976 H   0  0  0  0  0  0  0  0  0  0  0  0
   10.7632  -10.3244   22.5233 H   0  0  0  0  0  0  0  0  0  0  0  0
   13.1984  -10.8366   24.2938 H   0  0  0  0  0  0  0  0  0  0  0  0
   11.6757  -10.5487   25.9659 H   0  0  0  0  0  0  0  0  0  0  0  0
   11.3992   -9.2545   24.9278 H   0  0  0  0  0  0  0  0  0  0  0  0
   11.9918  -12.9121   24.8571 H   0  0  0  0  0  0  0  0  0  0  0  0
   10.6990  -12.4826   23.6579 H   0  0  0  0  0  0  0  0  0  0  0  0
   12.2353  -14.1465   22.7110 H   0  0  0  0  0  0  0  0  0  0  0  0
   13.6276  -13.0741   23.0169 H   0  0  0  0  0  0  0  0  0  0  0  0
   18.7245  -15.7215   23.0466 H   0  0  0  0  0  0  0  0  0  0  0  0
   16.8914  -17.0085   24.4546 H   0  0  0  0  0  0  0  0  0  0  0  0
   17.4710  -18.6798   23.2467 H   0  0  0  0  0  0  0  0  0  0  0  0
   16.3567  -18.0509   21.9859 H   0  0  0  0  0  0  0  0  0  0  0  0
   18.0836  -17.5564   21.9859 H   0  0  0  0  0  0  0  0  0  0  0  0
   17.7834  -13.8525   24.9072 H   0  0  0  0  0  0  0  0  0  0  0  0
   17.1360  -15.4831   25.5080 H   0  0  0  0  0  0  0  0  0  0  0  0
   18.9772  -17.3798   25.3944 H   0  0  0  0  0  0  0  0  0  0  0  0
   21.1843  -17.8671   26.4293 H   0  0  0  0  0  0  0  0  0  0  0  0
   22.5768  -16.0035   27.2742 H   0  0  0  0  0  0  0  0  0  0  0  0
   21.8157  -13.6630   27.0407 H   0  0  0  0  0  0  0  0  0  0  0  0
   19.6203  -13.1694   26.0085 H   0  0  0  0  0  0  0  0  0  0  0  0
  1 29  1  1  0  0  0
  2  1  1  0  0  0  0
  3  1  1  0  0  0  0
  3 30  1  0  0  0  0
  3 31  1  0  0  0  0
  4  3  1  0  0  0  0
  4 32  1  0  0  0  0
  4 33  1  0  0  0  0
  5  4  1  0  0  0  0
  5  2  1  0  0  0  0
  5 34  1  0  0  0  0
  5 35  1  0  0  0  0
  6  2  1  0  0  0  0
  7  6  2  0  0  0  0
  8  1  1  0  0  0  0
  9  8  1  0  0  0  0
  9 36  1  0  0  0  0
 10  8  2  0  0  0  0
 11  9  1  0  0  0  0
 11 37  1  0  0  0  0
 11 38  1  0  0  0  0
 12 11  1  0  0  0  0
 12 39  1  6  0  0  0
 13 12  1  0  0  0  0
 13 40  1  0  0  0  0
 13 41  1  0  0  0  0
 14 13  1  0  0  0  0
 14 42  1  0  0  0  0
 14 43  1  0  0  0  0
 15 14  1  0  0  0  0
 15 44  1  1  0  0  0
 16 15  1  0  0  0  0
 16 45  1  0  0  0  0
 16 46  1  0  0  0  0
 17 15  1  0  0  0  0
 17 47  1  0  0  0  0
 17 48  1  0  0  0  0
 18 12  1  0  0  0  0
 18 17  1  0  0  0  0
 18 49  1  0  0  0  0
 18 50  1  0  0  0  0
 19  6  1  0  0  0  0
 19 51  1  6  0  0  0
 20 19  1  0  0  0  0
 20 52  1  0  0  0  0
 21 20  1  0  0  0  0
 21 53  1  0  0  0  0
 21 54  1  0  0  0  0
 21 55  1  0  0  0  0
 22 19  1  0  0  0  0
 22 56  1  0  0  0  0
 22 57  1  0  0  0  0
 23 22  1  0  0  0  0
 24 23  2  0  0  0  0
 24 58  1  0  0  0  0
 25 24  1  0  0  0  0
 25 59  1  0  0  0  0
 26 25  2  0  0  0  0
 26 60  1  0  0  0  0
 27 26  1  0  0  0  0
 27 61  1  0  0  0  0
 28 27  2  0  0  0  0
 28 23  1  0  0  0  0
 28 62  1  0  0  0  0
M  END
$$$$
