@<TRIPOS>MOLECULE
MIN
 62 64 0 0 0
SMALL
GASTEIGER

@<TRIPOS>ATOM
      1 C          16.9100  -13.2980   20.3640 C.3     1  UNL1        0.1022
      2 N          17.5550  -14.1980   21.3230 N.am    1  UNL1       -0.2886
      3 C          17.6140  -13.5180   19.0510 C.3     1  UNL1       -0.0243
      4 C          18.9010  -14.1840   19.4290 C.3     1  UNL1       -0.0350
      5 C          18.5490  -15.0210   20.6360 C.3     1  UNL1        0.0156
      6 C          17.1330  -14.3800   22.5790 C.2     1  UNL1        0.2335
      7 O          16.2620  -13.6520   23.0780 O.2     1  UNL1       -0.2739
      8 C          15.4220  -13.6510   20.2510 C.2     1  UNL1        0.2336
      9 N          14.4770  -12.7420   20.5500 N.am    1  UNL1       -0.3135
     10 O          15.1200  -14.7990   19.9170 O.2     1  UNL1       -0.2738
     11 C          13.0440  -13.0150   20.4270 C.3     1  UNL1        0.0145
     12 C          12.2580  -12.3620   21.5020 C.3     1  UNL1       -0.0253
     13 C          12.5870  -10.8710   21.5780 C.3     1  UNL1       -0.0474
     14 C          11.8410  -10.2320   22.7230 C.3     1  UNL1       -0.0375
     15 C          12.1340  -10.9130   24.0270 C.3     1  UNL1        0.0049
     16 N          11.3340  -10.2770   25.0330 N.3     1  UNL1       -0.3272
     17 C          11.7690  -12.4120   23.9030 C.3     1  UNL1       -0.0375
     18 C          12.5500  -13.0960   22.7970 C.3     1  UNL1       -0.0474
     19 C          17.7400  -15.4650   23.4650 C.3     1  UNL1        0.0887
     20 N          16.8930  -16.6610   23.4850 N.3     1  UNL1       -0.3084
     21 C          17.2220  -17.8100   22.6210 C.3     1  UNL1       -0.0151
     22 C          17.9010  -14.9460   24.9280 C.3     1  UNL1       -0.0037
     23 C          19.2110  -15.2520   25.6250 C.ar    1  UNL1       -0.0454
     24 C          19.6170  -16.5600   25.7530 C.ar    1  UNL1       -0.0585
     25 C          20.8330  -16.8290   26.3350 C.ar    1  UNL1       -0.0615
     26 C          21.6080  -15.7900   26.7990 C.ar    1  UNL1       -0.0617
     27 C          21.1820  -14.4840   26.6740 C.ar    1  UNL1       -0.0615
     28 C          19.9750  -14.2070   26.0960 C.ar    1  UNL1       -0.0585
     29 H          16.9765  -12.2445   20.6733 H       1  UNL1        0.0597
     30 H          17.0177  -14.1672   18.3930 H       1  UNL1        0.0288
     31 H          17.7723  -12.5812   18.4965 H       1  UNL1        0.0288
     32 H          19.2669  -14.8185   18.6083 H       1  UNL1        0.0281
     33 H          19.7023  -13.4603   19.6392 H       1  UNL1        0.0281
     34 H          18.1223  -15.9894   20.3357 H       1  UNL1        0.0465
     35 H          19.4184  -15.2676   21.2632 H       1  UNL1        0.0465
     36 H          14.7746  -11.8128   20.8801 H       1  UNL1        0.1487
     37 H          12.6937  -12.6405   19.4538 H       1  UNL1        0.0465
     38 H          12.8974  -14.1018   20.5123 H       1  UNL1        0.0465
     39 H          11.1790  -12.4209   21.2964 H       1  UNL1        0.0316
     40 H          13.6687  -10.7448   21.7332 H       1  UNL1        0.0269
     41 H          12.2843  -10.3876   20.6374 H       1  UNL1        0.0269
     42 H          12.1398   -9.1760   22.7976 H       1  UNL1        0.0280
     43 H          10.7632  -10.3244   22.5233 H       1  UNL1        0.0280
     44 H          13.1984  -10.8366   24.2938 H       1  UNL1        0.0458
     45 H          11.6757  -10.5487   25.9659 H       1  UNL1        0.1185
     46 H          11.3992   -9.2545   24.9278 H       1  UNL1        0.1185
     47 H          11.9918  -12.9121   24.8571 H       1  UNL1        0.0280
     48 H          10.6990  -12.4826   23.6579 H       1  UNL1        0.0280
     49 H          12.2353  -14.1465   22.7110 H       1  UNL1        0.0269
     50 H          13.6276  -13.0741   23.0169 H       1  UNL1        0.0269
     51 H          18.7245  -15.7215   23.0466 H       1  UNL1        0.0560
     52 H          16.8914  -17.0085   24.4546 H       1  UNL1        0.1223
     53 H          17.4710  -18.6798   23.2467 H       1  UNL1        0.0388
     54 H          16.3567  -18.0509   21.9859 H       1  UNL1        0.0388
     55 H          18.0836  -17.5564   21.9859 H       1  UNL1        0.0388
     56 H          17.7834  -13.8525   24.9072 H       1  UNL1        0.0333
     57 H          17.1360  -15.4831   25.5080 H       1  UNL1        0.0333
     58 H          18.9772  -17.3798   25.3944 H       1  UNL1        0.0620
     59 H          21.1843  -17.8671   26.4293 H       1  UNL1        0.0618
     60 H          22.5768  -16.0035   27.2742 H       1  UNL1        0.0618
     61 H          21.8157  -13.6630   27.0407 H       1  UNL1        0.0618
     62 H          19.6203  -13.1694   26.0085 H       1  UNL1        0.0620
@<TRIPOS>BOND
     1     2     1    1
     2     3     1    1
     3     4     3    1
     4     5     4    1
     5     5     2    1
     6     6     2   am
     7     7     6    2
     8     8     1    1
     9     9     8   am
    10    10     8    2
    11    11     9    1
    12    12    11    1
    13    13    12    1
    14    14    13    1
    15    15    14    1
    16    16    15    1
    17    17    15    1
    18    18    12    1
    19    18    17    1
    20    19     6    1
    21    20    19    1
    22    21    20    1
    23    22    19    1
    24    23    22    1
    25    24    23   ar
    26    25    24   ar
    27    26    25   ar
    28    27    26   ar
    29    28    27   ar
    30    28    23   ar
    31     1    29    1
    32     3    30    1
    33     3    31    1
    34     4    32    1
    35     4    33    1
    36     5    34    1
    37     5    35    1
    38     9    36    1
    39    11    37    1
    40    11    38    1
    41    12    39    1
    42    13    40    1
    43    13    41    1
    44    14    42    1
    45    14    43    1
    46    15    44    1
    47    16    45    1
    48    16    46    1
    49    17    47    1
    50    17    48    1
    51    18    49    1
    52    18    50    1
    53    19    51    1
    54    20    52    1
    55    21    53    1
    56    21    54    1
    57    21    55    1
    58    22    56    1
    59    22    57    1
    60    24    58    1
    61    25    59    1
    62    26    60    1
    63    27    61    1
    64    28    62    1
