@<TRIPOS>MOLECULE
3F5
 44 46 0 0 0
SMALL
GASTEIGER

@<TRIPOS>ATOM
      1 C          12.1730    3.2530    4.2030 C.3     1  UNL1        0.1682
      2 O          11.4740    4.2730    3.4710 O.3     1  UNL1       -0.3456
      3 C          10.0720    4.0670    3.7710 C.3     1  UNL1        0.1128
      4 C          10.0390    3.3010    5.1160 C.3     1  UNL1        0.1135
      5 C          11.4740    3.2300    5.5250 C.3     1  UNL1        0.1286
      6 O          11.7340    1.9810    6.2050 O.3     1  UNL1       -0.3847
      7 O           9.5340    1.9920    4.8930 O.3     1  UNL1       -0.3864
      8 N          13.5490    3.6670    4.3190 N.ar    1  UNL1       -0.2671
      9 C          14.6590    2.8520    4.3320 C.ar    1  UNL1        0.1997
     10 N          15.7360    3.6070    4.5470 N.ar    1  UNL1       -0.2093
     11 C          15.3200    4.8520    4.7250 C.ar    1  UNL1        0.1492
     12 C          15.9780    6.0020    4.9180 C.ar    1  UNL1        0.1472
     13 C          13.9350    4.8760    4.5820 C.ar    1  UNL1        0.1688
     14 N          15.2520    7.1740    5.0430 N.ar    1  UNL1       -0.2188
     15 N          17.3430    6.0060    5.0070 N.pl3   1  UNL1       -0.3413
     16 C          13.8710    7.1530    4.9430 C.ar    1  UNL1        0.1205
     17 N          13.2420    6.0440    4.7040 N.ar    1  UNL1       -0.2159
     18 N          14.6060    1.5270    4.1440 N.pl3   1  UNL1       -0.3178
     19 C          14.8890    0.6020    5.2870 C.3     1  UNL1        0.0002
     20 C           9.4460    5.4400    3.9330 C.3     1  UNL1        0.0771
     21 O           8.4620    5.3570    4.9560 O.3     1  UNL1       -0.3680
     22 C           8.4820    6.5210    5.7720 C.3     1  UNL1        0.1235
     23 C           7.0790    7.1090    5.7880 C.2     1  UNL1        0.2363
     24 O           6.1410    6.4710    5.3150 O.2     1  UNL1       -0.2735
     25 N           6.8660    8.2850    6.3320 N.am    1  UNL1       -0.3274
     26 H          12.1723    2.2550    3.7404 H       1  UNL1        0.0867
     27 H           9.5313    3.5080    2.9931 H       1  UNL1        0.0647
     28 H           9.4054    3.7806    5.8766 H       1  UNL1        0.0647
     29 H          11.7871    4.0303    6.2117 H       1  UNL1        0.0665
     30 H          11.7039    2.1257    7.1839 H       1  UNL1        0.2101
     31 H           9.3640    1.5512    5.7630 H       1  UNL1        0.2100
     32 H          17.8468    6.8920    5.1555 H       1  UNL1        0.1438
     33 H          17.8670    5.1230    4.9255 H       1  UNL1        0.1438
     34 H          13.3018    8.0860    5.0675 H       1  UNL1        0.1048
     35 H          14.3714    1.1456    3.2164 H       1  UNL1        0.1485
     36 H          14.7267    1.1325    6.2369 H       1  UNL1        0.0426
     37 H          14.2153   -0.2658    5.2319 H       1  UNL1        0.0426
     38 H          15.9329    0.2598    5.2319 H       1  UNL1        0.0426
     39 H          10.2178    6.1710    4.2160 H       1  UNL1        0.0587
     40 H           8.9873    5.7645    2.9873 H       1  UNL1        0.0587
     41 H           8.7866    6.2545    6.7948 H       1  UNL1        0.0656
     42 H           9.1988    7.2542    5.3737 H       1  UNL1        0.0656
     43 H           5.9161    8.6830    6.3428 H       1  UNL1        0.1450
     44 H           7.6489    8.8094    6.7479 H       1  UNL1        0.1450
@<TRIPOS>BOND
     1     2     1    1
     2     3     2    1
     3     4     3    1
     4     5     4    1
     5     5     1    1
     6     6     5    1
     7     7     4    1
     8     8     1    1
     9     9     8   ar
    10    10     9   ar
    11    11    10   ar
    12    12    11   ar
    13    13    11   ar
    14    13     8   ar
    15    14    12   ar
    16    15    12    1
    17    16    14   ar
    18    17    13   ar
    19    17    16   ar
    20    18     9    1
    21    19    18    1
    22    20     3    1
    23    21    20    1
    24    22    21    1
    25    23    22    1
    26    24    23    2
    27    25    23   am
    28     1    26    1
    29     3    27    1
    30     4    28    1
    31     5    29    1
    32     6    30    1
    33     7    31    1
    34    15    32    1
    35    15    33    1
    36    16    34    1
    37    18    35    1
    38    19    36    1
    39    19    37    1
    40    19    38    1
    41    20    39    1
    42    20    40    1
    43    22    41    1
    44    22    42    1
    45    25    43    1
    46    25    44    1
