3F5
 OpenBabel09092211323D

 44 46  0  0  0  0  0  0  0  0999 V2000
   12.1730    3.2530    4.2030 C   0  0  2  0  0  0  0  0  0  0  0  0
   11.4740    4.2730    3.4710 O   0  0  0  0  0  0  0  0  0  0  0  0
   10.0720    4.0670    3.7710 C   0  0  1  0  0  0  0  0  0  0  0  0
   10.0390    3.3010    5.1160 C   0  0  2  0  0  0  0  0  0  0  0  0
   11.4740    3.2300    5.5250 C   0  0  1  0  0  0  0  0  0  0  0  0
   11.7340    1.9810    6.2050 O   0  0  0  0  0  0  0  0  0  0  0  0
    9.5340    1.9920    4.8930 O   0  0  0  0  0  0  0  0  0  0  0  0
   13.5490    3.6670    4.3190 N   0  0  0  0  0  0  0  0  0  0  0  0
   14.6590    2.8520    4.3320 C   0  0  0  0  0  0  0  0  0  0  0  0
   15.7360    3.6070    4.5470 N   0  0  0  0  0  0  0  0  0  0  0  0
   15.3200    4.8520    4.7250 C   0  0  0  0  0  0  0  0  0  0  0  0
   15.9780    6.0020    4.9180 C   0  0  0  0  0  0  0  0  0  0  0  0
   13.9350    4.8760    4.5820 C   0  0  0  0  0  0  0  0  0  0  0  0
   15.2520    7.1740    5.0430 N   0  0  0  0  0  0  0  0  0  0  0  0
   17.3430    6.0060    5.0070 N   0  0  0  0  0  0  0  0  0  0  0  0
   13.8710    7.1530    4.9430 C   0  0  0  0  0  0  0  0  0  0  0  0
   13.2420    6.0440    4.7040 N   0  0  0  0  0  0  0  0  0  0  0  0
   14.6060    1.5270    4.1440 N   0  0  0  0  0  0  0  0  0  0  0  0
   14.8890    0.6020    5.2870 C   0  0  0  0  0  0  0  0  0  0  0  0
    9.4460    5.4400    3.9330 C   0  0  0  0  0  0  0  0  0  0  0  0
    8.4620    5.3570    4.9560 O   0  0  0  0  0  0  0  0  0  0  0  0
    8.4820    6.5210    5.7720 C   0  0  0  0  0  0  0  0  0  0  0  0
    7.0790    7.1090    5.7880 C   0  0  0  0  0  0  0  0  0  0  0  0
    6.1410    6.4710    5.3150 O   0  0  0  0  0  0  0  0  0  0  0  0
    6.8660    8.2850    6.3320 N   0  0  0  0  0  0  0  0  0  0  0  0
   12.1723    2.2550    3.7404 H   0  0  0  0  0  0  0  0  0  0  0  0
    9.5313    3.5080    2.9931 H   0  0  0  0  0  0  0  0  0  0  0  0
    9.4054    3.7806    5.8766 H   0  0  0  0  0  0  0  0  0  0  0  0
   11.7871    4.0303    6.2117 H   0  0  0  0  0  0  0  0  0  0  0  0
   11.7039    2.1257    7.1839 H   0  0  0  0  0  0  0  0  0  0  0  0
    9.3640    1.5512    5.7630 H   0  0  0  0  0  0  0  0  0  0  0  0
   17.8468    6.8920    5.1555 H   0  0  0  0  0  0  0  0  0  0  0  0
   17.8670    5.1230    4.9255 H   0  0  0  0  0  0  0  0  0  0  0  0
   13.3018    8.0860    5.0675 H   0  0  0  0  0  0  0  0  0  0  0  0
   14.3714    1.1456    3.2164 H   0  0  0  0  0  0  0  0  0  0  0  0
   14.7267    1.1325    6.2369 H   0  0  0  0  0  0  0  0  0  0  0  0
   14.2153   -0.2658    5.2319 H   0  0  0  0  0  0  0  0  0  0  0  0
   15.9329    0.2598    5.2319 H   0  0  0  0  0  0  0  0  0  0  0  0
   10.2178    6.1710    4.2160 H   0  0  0  0  0  0  0  0  0  0  0  0
    8.9873    5.7645    2.9873 H   0  0  0  0  0  0  0  0  0  0  0  0
    8.7866    6.2545    6.7948 H   0  0  0  0  0  0  0  0  0  0  0  0
    9.1988    7.2542    5.3737 H   0  0  0  0  0  0  0  0  0  0  0  0
    5.9161    8.6830    6.3428 H   0  0  0  0  0  0  0  0  0  0  0  0
    7.6489    8.8094    6.7479 H   0  0  0  0  0  0  0  0  0  0  0  0
  1 26  1  6  0  0  0
  2  1  1  0  0  0  0
  3  2  1  0  0  0  0
  3 27  1  6  0  0  0
  4  3  1  0  0  0  0
  4 28  1  1  0  0  0
  5  4  1  0  0  0  0
  5  1  1  0  0  0  0
  5 29  1  1  0  0  0
  6  5  1  0  0  0  0
  6 30  1  0  0  0  0
  7  4  1  0  0  0  0
  7 31  1  0  0  0  0
  8  1  1  0  0  0  0
  9  8  1  0  0  0  0
 10  9  2  0  0  0  0
 11 10  1  0  0  0  0
 12 11  1  0  0  0  0
 13 11  2  0  0  0  0
 13  8  1  0  0  0  0
 14 12  2  0  0  0  0
 15 12  1  0  0  0  0
 15 32  1  0  0  0  0
 15 33  1  0  0  0  0
 16 14  1  0  0  0  0
 16 34  1  0  0  0  0
 17 13  1  0  0  0  0
 17 16  2  0  0  0  0
 18  9  1  0  0  0  0
 18 35  1  0  0  0  0
 19 18  1  0  0  0  0
 19 36  1  0  0  0  0
 19 37  1  0  0  0  0
 19 38  1  0  0  0  0
 20  3  1  0  0  0  0
 20 39  1  0  0  0  0
 20 40  1  0  0  0  0
 21 20  1  0  0  0  0
 22 21  1  0  0  0  0
 22 41  1  0  0  0  0
 22 42  1  0  0  0  0
 23 22  1  0  0  0  0
 24 23  2  0  0  0  0
 25 23  1  0  0  0  0
 25 43  1  0  0  0  0
 25 44  1  0  0  0  0
M  END
$$$$
