@<TRIPOS>MOLECULE
VX2
 44 47 0 0 0
SMALL
GASTEIGER

@<TRIPOS>ATOM
      1 N         169.7150 -121.4830    1.9480 N.ar    1  UNL1       -0.1270
      2 N         169.6440 -122.5510    1.1720 N.ar    1  UNL1       -0.1276
      3 N         168.8000 -120.2910   -1.3670 N.ar    1  UNL1       -0.1482
      4 N         169.1520 -120.9190   -0.1470 N.ar    1  UNL1       -0.1909
      5 C         169.4190 -120.4250    1.1470 C.ar    1  UNL1        0.1853
      6 C         169.3170 -122.3260   -0.1010 C.ar    1  UNL1        0.1784
      7 C         169.1440 -123.0890   -1.2920 C.ar    1  UNL1       -0.0123
      8 C         168.7890 -122.3890   -2.5110 C.ar    1  UNL1       -0.0166
      9 C         168.6040 -120.9530   -2.5730 C.ar    1  UNL1        0.1400
     10 C         169.4590 -119.0030    1.6180 C.ar    1  UNL1        0.0215
     11 C         169.9740 -118.6250    2.9470 C.ar    1  UNL1       -0.0510
     12 C         170.0560 -117.2230    3.3440 C.ar    1  UNL1       -0.0606
     13 C         169.6290 -116.1750    2.4260 C.ar    1  UNL1       -0.0501
     14 C         169.0970 -116.5100    1.0770 C.ar    1  UNL1        0.0555
     15 C         169.0330 -117.9320    0.7260 C.ar    1  UNL1       -0.0394
     16 C         168.6310 -115.4250    0.0800 C.3     1  UNL1        0.4174
     17 F         167.6430 -114.7110    0.6770 F       1  UNL1       -0.1659
     18 F         168.0920 -115.9500   -1.0530 F       1  UNL1       -0.1659
     19 F         169.7150 -114.6780   -0.2650 F       1  UNL1       -0.1659
     20 N         168.2330 -120.3210   -3.7460 N.pl3   1  UNL1       -0.3248
     21 C         168.3690 -118.8910   -3.8880 C.3     1  UNL1        0.0220
     22 C         169.0950 -118.6120   -5.2010 C.3     1  UNL1       -0.0345
     23 C         169.1420 -117.1260   -5.5250 C.3     1  UNL1       -0.0514
     24 C         167.7610 -116.4880   -5.4730 C.3     1  UNL1       -0.0529
     25 C         167.0680 -116.7250   -4.1370 C.3     1  UNL1       -0.0514
     26 C         166.9870 -118.2060   -3.7960 C.3     1  UNL1       -0.0345
     27 H         169.2764 -124.1810   -1.2866 H       1  UNL1        0.0656
     28 H         168.6538 -122.9753   -3.4319 H       1  UNL1        0.0653
     29 H         170.3000 -119.4084    3.6470 H       1  UNL1        0.0625
     30 H         170.4413 -116.9566    4.3393 H       1  UNL1        0.0618
     31 H         169.7009 -115.1216    2.7344 H       1  UNL1        0.0623
     32 H         168.6420 -118.2056   -0.2651 H       1  UNL1        0.0630
     33 H         167.8556 -120.8768   -4.5267 H       1  UNL1        0.1478
     34 H         168.9672 -118.4658   -3.0686 H       1  UNL1        0.0498
     35 H         170.1248 -118.9910   -5.1243 H       1  UNL1        0.0283
     36 H         168.5427 -119.1170   -6.0072 H       1  UNL1        0.0283
     37 H         169.7932 -116.6235   -4.7946 H       1  UNL1        0.0266
     38 H         169.5306 -117.0130   -6.5478 H       1  UNL1        0.0266
     39 H         167.8651 -115.4044   -5.6308 H       1  UNL1        0.0265
     40 H         167.1457 -116.9496   -6.2594 H       1  UNL1        0.0265
     41 H         167.6323 -116.2082   -3.3468 H       1  UNL1        0.0266
     42 H         166.0421 -116.3349   -4.2105 H       1  UNL1        0.0266
     43 H         166.6027 -118.3152   -2.7711 H       1  UNL1        0.0283
     44 H         166.3165 -118.6885   -4.5224 H       1  UNL1        0.0283
@<TRIPOS>BOND
     1     2     1   ar
     2     4     3   ar
     3     5     4   ar
     4     5     1   ar
     5     6     4   ar
     6     6     2   ar
     7     7     6   ar
     8     8     7   ar
     9     9     8   ar
    10     9     3   ar
    11    10     5    1
    12    11    10   ar
    13    12    11   ar
    14    13    12   ar
    15    14    13   ar
    16    15    14   ar
    17    15    10   ar
    18    16    14    1
    19    17    16    1
    20    18    16    1
    21    19    16    1
    22    20     9    1
    23    21    20    1
    24    22    21    1
    25    23    22    1
    26    24    23    1
    27    25    24    1
    28    26    25    1
    29    26    21    1
    30     7    27    1
    31     8    28    1
    32    11    29    1
    33    12    30    1
    34    13    31    1
    35    15    32    1
    36    20    33    1
    37    21    34    1
    38    22    35    1
    39    22    36    1
    40    23    37    1
    41    23    38    1
    42    24    39    1
    43    24    40    1
    44    25    41    1
    45    25    42    1
    46    26    43    1
    47    26    44    1
