VX2
 OpenBabel10052215503D

 44 47  0  0  0  0  0  0  0  0999 V2000
  169.7150 -121.4830    1.9480 N   0  0  0  0  0  0  0  0  0  0  0  0
  169.6440 -122.5510    1.1720 N   0  0  0  0  0  0  0  0  0  0  0  0
  168.8000 -120.2910   -1.3670 N   0  0  0  0  0  0  0  0  0  0  0  0
  169.1520 -120.9190   -0.1470 N   0  0  0  0  0  0  0  0  0  0  0  0
  169.4190 -120.4250    1.1470 C   0  0  0  0  0  0  0  0  0  0  0  0
  169.3170 -122.3260   -0.1010 C   0  0  0  0  0  0  0  0  0  0  0  0
  169.1440 -123.0890   -1.2920 C   0  0  0  0  0  0  0  0  0  0  0  0
  168.7890 -122.3890   -2.5110 C   0  0  0  0  0  0  0  0  0  0  0  0
  168.6040 -120.9530   -2.5730 C   0  0  0  0  0  0  0  0  0  0  0  0
  169.4590 -119.0030    1.6180 C   0  0  0  0  0  0  0  0  0  0  0  0
  169.9740 -118.6250    2.9470 C   0  0  0  0  0  0  0  0  0  0  0  0
  170.0560 -117.2230    3.3440 C   0  0  0  0  0  0  0  0  0  0  0  0
  169.6290 -116.1750    2.4260 C   0  0  0  0  0  0  0  0  0  0  0  0
  169.0970 -116.5100    1.0770 C   0  0  0  0  0  0  0  0  0  0  0  0
  169.0330 -117.9320    0.7260 C   0  0  0  0  0  0  0  0  0  0  0  0
  168.6310 -115.4250    0.0800 C   0  0  0  0  0  0  0  0  0  0  0  0
  167.6430 -114.7110    0.6770 F   0  0  0  0  0  0  0  0  0  0  0  0
  168.0920 -115.9500   -1.0530 F   0  0  0  0  0  0  0  0  0  0  0  0
  169.7150 -114.6780   -0.2650 F   0  0  0  0  0  0  0  0  0  0  0  0
  168.2330 -120.3210   -3.7460 N   0  0  0  0  0  0  0  0  0  0  0  0
  168.3690 -118.8910   -3.8880 C   0  0  0  0  0  0  0  0  0  0  0  0
  169.0950 -118.6120   -5.2010 C   0  0  0  0  0  0  0  0  0  0  0  0
  169.1420 -117.1260   -5.5250 C   0  0  0  0  0  0  0  0  0  0  0  0
  167.7610 -116.4880   -5.4730 C   0  0  0  0  0  0  0  0  0  0  0  0
  167.0680 -116.7250   -4.1370 C   0  0  0  0  0  0  0  0  0  0  0  0
  166.9870 -118.2060   -3.7960 C   0  0  0  0  0  0  0  0  0  0  0  0
  169.2764 -124.1810   -1.2866 H   0  0  0  0  0  0  0  0  0  0  0  0
  168.6538 -122.9753   -3.4319 H   0  0  0  0  0  0  0  0  0  0  0  0
  170.3000 -119.4084    3.6470 H   0  0  0  0  0  0  0  0  0  0  0  0
  170.4413 -116.9566    4.3393 H   0  0  0  0  0  0  0  0  0  0  0  0
  169.7009 -115.1216    2.7344 H   0  0  0  0  0  0  0  0  0  0  0  0
  168.6420 -118.2056   -0.2651 H   0  0  0  0  0  0  0  0  0  0  0  0
  167.8556 -120.8768   -4.5267 H   0  0  0  0  0  0  0  0  0  0  0  0
  168.9672 -118.4658   -3.0686 H   0  0  0  0  0  0  0  0  0  0  0  0
  170.1248 -118.9910   -5.1243 H   0  0  0  0  0  0  0  0  0  0  0  0
  168.5427 -119.1170   -6.0072 H   0  0  0  0  0  0  0  0  0  0  0  0
  169.7932 -116.6235   -4.7946 H   0  0  0  0  0  0  0  0  0  0  0  0
  169.5306 -117.0130   -6.5478 H   0  0  0  0  0  0  0  0  0  0  0  0
  167.8651 -115.4044   -5.6308 H   0  0  0  0  0  0  0  0  0  0  0  0
  167.1457 -116.9496   -6.2594 H   0  0  0  0  0  0  0  0  0  0  0  0
  167.6323 -116.2082   -3.3468 H   0  0  0  0  0  0  0  0  0  0  0  0
  166.0421 -116.3349   -4.2105 H   0  0  0  0  0  0  0  0  0  0  0  0
  166.6027 -118.3152   -2.7711 H   0  0  0  0  0  0  0  0  0  0  0  0
  166.3165 -118.6885   -4.5224 H   0  0  0  0  0  0  0  0  0  0  0  0
  2  1  1  0  0  0  0
  4  3  1  0  0  0  0
  5  4  1  0  0  0  0
  5  1  2  0  0  0  0
  6  4  1  0  0  0  0
  6  2  2  0  0  0  0
  7  6  1  0  0  0  0
  7 27  1  0  0  0  0
  8  7  2  0  0  0  0
  8 28  1  0  0  0  0
  9  8  1  0  0  0  0
  9  3  2  0  0  0  0
 10  5  1  0  0  0  0
 11 10  2  0  0  0  0
 11 29  1  0  0  0  0
 12 11  1  0  0  0  0
 12 30  1  0  0  0  0
 13 12  2  0  0  0  0
 13 31  1  0  0  0  0
 14 13  1  0  0  0  0
 15 14  2  0  0  0  0
 15 10  1  0  0  0  0
 15 32  1  0  0  0  0
 16 14  1  0  0  0  0
 17 16  1  0  0  0  0
 18 16  1  0  0  0  0
 19 16  1  0  0  0  0
 20  9  1  0  0  0  0
 20 33  1  0  0  0  0
 21 20  1  0  0  0  0
 21 34  1  0  0  0  0
 22 21  1  0  0  0  0
 22 35  1  0  0  0  0
 22 36  1  0  0  0  0
 23 22  1  0  0  0  0
 23 37  1  0  0  0  0
 23 38  1  0  0  0  0
 24 23  1  0  0  0  0
 24 39  1  0  0  0  0
 24 40  1  0  0  0  0
 25 24  1  0  0  0  0
 25 41  1  0  0  0  0
 25 42  1  0  0  0  0
 26 25  1  0  0  0  0
 26 21  1  0  0  0  0
 26 43  1  0  0  0  0
 26 44  1  0  0  0  0
M  END
$$$$
