@<TRIPOS>MOLECULE
UC1
 40 41 0 0 0
SMALL
GASTEIGER

@<TRIPOS>ATOM
      1 CL          6.6270  -39.3910   15.9770 Cl      1  UNL1       -0.0798
      2 C           3.0340  -37.6740   18.1220 C.ar    1  UNL1        0.0353
      3 C           4.3090  -37.5670   18.7030 C.ar    1  UNL1        0.0027
      4 C           5.4470  -38.1240   18.0950 C.ar    1  UNL1        0.1409
      5 C           5.2990  -38.8120   16.8660 C.ar    1  UNL1        0.0827
      6 C           4.0190  -38.9370   16.2800 C.ar    1  UNL1       -0.0381
      7 C           2.9050  -38.3790   16.8990 C.ar    1  UNL1       -0.0389
      8 N           1.8400  -37.0920   18.6430 N.am    1  UNL1       -0.3080
      9 C           0.9830  -37.5720   19.6380 C.2     1  UNL1        0.0869
     10 S           1.1110  -39.1880   20.0940 S.2     1  UNL1       -0.0345
     11 C          -0.0620  -36.6430   20.2080 C.ar    1  UNL1        0.0440
     12 C          -1.0520  -36.0290   19.5200 C.ar    1  UNL1        0.1112
     13 C          -1.4530  -36.0020   18.0410 C.3     1  UNL1       -0.0057
     14 O          -1.8730  -35.2880   20.3800 O.2     1  UNL1       -0.4674
     15 C          -1.3470  -35.4660   21.6600 C.ar    1  UNL1        0.0927
     16 C          -0.2690  -36.2560   21.6390 C.ar    1  UNL1       -0.0142
     17 O           6.6960  -38.0130   18.6980 O.3     1  UNL1       -0.4864
     18 C           7.4420  -36.7670   18.6780 C.3     1  UNL1        0.1081
     19 C           7.8870  -36.4250   20.1000 C.2     1  UNL1       -0.0484
     20 C           8.9770  -36.8810   20.7100 C.2     1  UNL1       -0.0765
     21 C           9.9360  -37.8390   20.0780 C.3     1  UNL1       -0.0439
     22 C           9.3150  -36.4690   22.0930 C.3     1  UNL1       -0.0439
     23 H           4.4192  -37.0334   19.6586 H       1  UNL1        0.0673
     24 H           3.9029  -39.4783   15.3295 H       1  UNL1        0.0634
     25 H           1.9137  -38.4860   16.4345 H       1  UNL1        0.0637
     26 H           1.5709  -36.1892   18.2266 H       1  UNL1        0.1527
     27 H          -2.5475  -35.9283   17.9591 H       1  UNL1        0.0308
     28 H          -0.9893  -35.1330   17.5512 H       1  UNL1        0.0308
     29 H          -1.1100  -36.9253   17.5512 H       1  UNL1        0.0308
     30 H          -1.7662  -35.0136   22.5708 H       1  UNL1        0.1029
     31 H           0.3432  -36.5606   22.5006 H       1  UNL1        0.0656
     32 H           8.3258  -36.8776   18.0324 H       1  UNL1        0.0742
     33 H           6.8045  -35.9607   18.2861 H       1  UNL1        0.0742
     34 H           7.2459  -35.7378   20.6717 H       1  UNL1        0.0605
     35 H          10.4812  -38.3836   20.8630 H       1  UNL1        0.0274
     36 H           9.3813  -38.5544   19.4531 H       1  UNL1        0.0274
     37 H          10.6508  -37.2836   19.4531 H       1  UNL1        0.0274
     38 H           8.7848  -37.1153   22.8080 H       1  UNL1        0.0274
     39 H          10.3999  -36.5626   22.2487 H       1  UNL1        0.0274
     40 H           9.0111  -35.4233   22.2487 H       1  UNL1        0.0274
@<TRIPOS>BOND
     1     3     2   ar
     2     4     3   ar
     3     5     4   ar
     4     5     1    1
     5     6     5   ar
     6     7     6   ar
     7     7     2   ar
     8     8     2    1
     9     9     8    1
    10    10     9    2
    11    11     9    1
    12    12    11   ar
    13    13    12    1
    14    14    12   ar
    15    15    14   ar
    16    16    15   ar
    17    16    11   ar
    18    17     4    1
    19    18    17    1
    20    19    18    1
    21    20    19    2
    22    21    20    1
    23    22    20    1
    24     3    23    1
    25     6    24    1
    26     7    25    1
    27     8    26    1
    28    13    27    1
    29    13    28    1
    30    13    29    1
    31    15    30    1
    32    16    31    1
    33    18    32    1
    34    18    33    1
    35    19    34    1
    36    21    35    1
    37    21    36    1
    38    21    37    1
    39    22    38    1
    40    22    39    1
    41    22    40    1
