UC1
 OpenBabel06142215333D

 40 41  0  0  0  0  0  0  0  0999 V2000
    6.6270  -39.3910   15.9770 Cl  0  0  0  0  0  0  0  0  0  0  0  0
    3.0340  -37.6740   18.1220 C   0  0  0  0  0  0  0  0  0  0  0  0
    4.3090  -37.5670   18.7030 C   0  0  0  0  0  0  0  0  0  0  0  0
    5.4470  -38.1240   18.0950 C   0  0  0  0  0  0  0  0  0  0  0  0
    5.2990  -38.8120   16.8660 C   0  0  0  0  0  0  0  0  0  0  0  0
    4.0190  -38.9370   16.2800 C   0  0  0  0  0  0  0  0  0  0  0  0
    2.9050  -38.3790   16.8990 C   0  0  0  0  0  0  0  0  0  0  0  0
    1.8400  -37.0920   18.6430 N   0  0  0  0  0  0  0  0  0  0  0  0
    0.9830  -37.5720   19.6380 C   0  0  0  0  0  0  0  0  0  0  0  0
    1.1110  -39.1880   20.0940 S   0  0  0  0  0  0  0  0  0  0  0  0
   -0.0620  -36.6430   20.2080 C   0  0  0  0  0  0  0  0  0  0  0  0
   -1.0520  -36.0290   19.5200 C   0  0  0  0  0  0  0  0  0  0  0  0
   -1.4530  -36.0020   18.0410 C   0  0  0  0  0  0  0  0  0  0  0  0
   -1.8730  -35.2880   20.3800 O   0  0  0  0  0  0  0  0  0  0  0  0
   -1.3470  -35.4660   21.6600 C   0  0  0  0  0  0  0  0  0  0  0  0
   -0.2690  -36.2560   21.6390 C   0  0  0  0  0  0  0  0  0  0  0  0
    6.6960  -38.0130   18.6980 O   0  0  0  0  0  0  0  0  0  0  0  0
    7.4420  -36.7670   18.6780 C   0  0  0  0  0  0  0  0  0  0  0  0
    7.8870  -36.4250   20.1000 C   0  0  0  0  0  0  0  0  0  0  0  0
    8.9770  -36.8810   20.7100 C   0  0  0  0  0  0  0  0  0  0  0  0
    9.9360  -37.8390   20.0780 C   0  0  0  0  0  0  0  0  0  0  0  0
    9.3150  -36.4690   22.0930 C   0  0  0  0  0  0  0  0  0  0  0  0
    4.4192  -37.0334   19.6586 H   0  0  0  0  0  0  0  0  0  0  0  0
    3.9029  -39.4783   15.3295 H   0  0  0  0  0  0  0  0  0  0  0  0
    1.9137  -38.4860   16.4345 H   0  0  0  0  0  0  0  0  0  0  0  0
    1.5709  -36.1892   18.2266 H   0  0  0  0  0  0  0  0  0  0  0  0
   -2.5475  -35.9283   17.9591 H   0  0  0  0  0  0  0  0  0  0  0  0
   -0.9893  -35.1330   17.5512 H   0  0  0  0  0  0  0  0  0  0  0  0
   -1.1100  -36.9253   17.5512 H   0  0  0  0  0  0  0  0  0  0  0  0
   -1.7662  -35.0136   22.5708 H   0  0  0  0  0  0  0  0  0  0  0  0
    0.3432  -36.5606   22.5006 H   0  0  0  0  0  0  0  0  0  0  0  0
    8.3258  -36.8776   18.0324 H   0  0  0  0  0  0  0  0  0  0  0  0
    6.8045  -35.9607   18.2861 H   0  0  0  0  0  0  0  0  0  0  0  0
    7.2459  -35.7378   20.6717 H   0  0  0  0  0  0  0  0  0  0  0  0
   10.4812  -38.3836   20.8630 H   0  0  0  0  0  0  0  0  0  0  0  0
    9.3813  -38.5544   19.4531 H   0  0  0  0  0  0  0  0  0  0  0  0
   10.6508  -37.2836   19.4531 H   0  0  0  0  0  0  0  0  0  0  0  0
    8.7848  -37.1153   22.8080 H   0  0  0  0  0  0  0  0  0  0  0  0
   10.3999  -36.5626   22.2487 H   0  0  0  0  0  0  0  0  0  0  0  0
    9.0111  -35.4233   22.2487 H   0  0  0  0  0  0  0  0  0  0  0  0
  3  2  2  0  0  0  0
  3 23  1  0  0  0  0
  4  3  1  0  0  0  0
  5  4  2  0  0  0  0
  5  1  1  0  0  0  0
  6  5  1  0  0  0  0
  6 24  1  0  0  0  0
  7  6  2  0  0  0  0
  7  2  1  0  0  0  0
  7 25  1  0  0  0  0
  8  2  1  0  0  0  0
  8 26  1  0  0  0  0
  9  8  1  0  0  0  0
 10  9  2  0  0  0  0
 11  9  1  0  0  0  0
 12 11  2  0  0  0  0
 13 12  1  0  0  0  0
 13 27  1  0  0  0  0
 13 28  1  0  0  0  0
 13 29  1  0  0  0  0
 14 12  1  0  0  0  0
 15 14  1  0  0  0  0
 15 30  1  0  0  0  0
 16 15  2  0  0  0  0
 16 11  1  0  0  0  0
 16 31  1  0  0  0  0
 17  4  1  0  0  0  0
 18 17  1  0  0  0  0
 18 32  1  0  0  0  0
 18 33  1  0  0  0  0
 19 18  1  0  0  0  0
 19 34  1  0  0  0  0
 20 19  2  0  0  0  0
 21 20  1  0  0  0  0
 21 35  1  0  0  0  0
 21 36  1  0  0  0  0
 21 37  1  0  0  0  0
 22 20  1  0  0  0  0
 22 38  1  0  0  0  0
 22 39  1  0  0  0  0
 22 40  1  0  0  0  0
M  END
$$$$
