@<TRIPOS>MOLECULE
S14
 56 59 0 0 0
SMALL
GASTEIGER

@<TRIPOS>ATOM
      1 C          44.1650   50.0940   40.1620 C.ar    1  UNL1       -0.0537
      2 C          46.2460   51.3220   39.7110 C.ar    1  UNL1       -0.0537
      3 C          45.5460   50.2970   40.4220 C.ar    1  UNL1       -0.0164
      4 C          43.4870   50.8620   39.2170 C.ar    1  UNL1       -0.0572
      5 C          45.5490   52.1020   38.7510 C.ar    1  UNL1       -0.0572
      6 C          47.6050   48.9150   41.2110 C.ar    1  UNL1       -0.0491
      7 C          44.1490   51.8760   38.4850 C.ar    1  UNL1       -0.0336
      8 C          46.2070   49.4180   41.4080 C.ar    1  UNL1        0.0004
      9 C          48.2250   48.1260   42.1430 C.ar    1  UNL1       -0.0168
     10 C          41.1720   58.3100   36.6130 C.3     1  UNL1       -0.0044
     11 C          45.5290   49.0590   42.5360 C.ar    1  UNL1        0.0392
     12 C          40.8470   56.8270   36.4330 C.3     1  UNL1        0.0175
     13 C          44.3750   51.5140   33.8480 C.3     1  UNL1        0.0029
     14 C          42.3930   50.8480   35.2490 C.3     1  UNL1        0.0029
     15 C          43.1480   57.1050   37.1860 C.3     1  UNL1        0.0459
     16 N          45.7390   47.7950   44.6160 N.ar    1  UNL1       -0.1535
     17 C          43.3270   52.6520   37.4310 C.3     1  UNL1        0.0843
     18 C          47.4690   47.7530   43.3510 C.ar    1  UNL1        0.1557
     19 C          42.6670   58.4510   36.7860 C.3     1  UNL1        0.1180
     20 N          47.8370   47.0190   44.4070 N.ar    1  UNL1       -0.2149
     21 N          46.2010   48.2170   43.5400 N.ar    1  UNL1       -0.2198
     22 C          46.7230   47.0690   45.1650 C.ar    1  UNL1        0.1390
     23 F          43.2030   58.7380   35.5480 F       1  UNL1       -0.2438
     24 C          44.1780   52.5450   36.0770 C.2     1  UNL1        0.2245
     25 O          41.2800   54.0790   36.3640 O.2     1  UNL1       -0.2739
     26 C          42.0660   54.7900   36.9720 C.2     1  UNL1        0.2335
     27 O          45.1280   53.2860   35.7880 O.2     1  UNL1       -0.2749
     28 N          42.0150   56.1220   36.9140 N.am    1  UNL1       -0.2973
     29 N          43.6280   51.6420   35.1230 N.am    1  UNL1       -0.3070
     30 C          43.1910   54.1590   37.8530 C.3     1  UNL1        0.0977
     31 N          42.8540   54.3060   39.2640 N.3     1  UNL1       -0.3191
     32 H          43.6537   49.3641   40.6825 H       1  UNL1        0.0624
     33 H          47.2472   51.4928   39.8939 H       1  UNL1        0.0624
     34 H          42.4839   50.6880   39.0481 H       1  UNL1        0.0621
     35 H          46.0513   52.8417   38.2357 H       1  UNL1        0.0621
     36 H          48.1139   49.1700   40.3502 H       1  UNL1        0.0625
     37 H          49.1947   47.8018   42.0029 H       1  UNL1        0.0655
     38 H          40.6704   58.6877   37.4794 H       1  UNL1        0.0309
     39 H          40.8459   58.8651   35.7583 H       1  UNL1        0.0309
     40 H          44.5573   49.3736   42.6839 H       1  UNL1        0.0837
     41 H          40.6723   56.6036   35.4013 H       1  UNL1        0.0465
     42 H          39.9621   56.5441   36.9639 H       1  UNL1        0.0465
     43 H          43.8755   50.8146   33.2106 H       1  UNL1        0.0428
     44 H          45.3672   51.1677   34.0492 H       1  UNL1        0.0428
     45 H          44.4212   52.4674   33.3644 H       1  UNL1        0.0428
     46 H          41.9504   51.0265   36.2067 H       1  UNL1        0.0428
     47 H          42.6260   49.8082   35.1520 H       1  UNL1        0.0428
     48 H          41.7058   51.1328   34.4799 H       1  UNL1        0.0428
     49 H          43.3967   57.0989   38.2267 H       1  UNL1        0.0493
     50 H          44.0248   56.8358   36.6350 H       1  UNL1        0.0493
     51 H          42.3385   52.2566   37.3239 H       1  UNL1        0.0463
     52 H          42.9309   59.2075   37.4952 H       1  UNL1        0.0667
     53 H          46.6365   46.5951   46.0777 H       1  UNL1        0.1066
     54 H          44.1292   54.6522   37.7065 H       1  UNL1        0.0565
     55 H          41.9617   53.8481   39.4499 H       1  UNL1        0.1189
     56 H          42.7823   55.2969   39.4950 H       1  UNL1        0.1189
@<TRIPOS>BOND
     1     3     2   ar
     2     3     1   ar
     3     4     1   ar
     4     5     2   ar
     5     7     4   ar
     6     7     5   ar
     7     8     6   ar
     8     8     3    1
     9     9     6   ar
    10    11     8   ar
    11    12    10    1
    12    17     7    1
    13    18     9   ar
    14    19    15    1
    15    19    10    1
    16    20    18   ar
    17    21    18   ar
    18    21    16   ar
    19    21    11   ar
    20    22    20   ar
    21    22    16   ar
    22    23    19    1
    23    24    17    1
    24    26    25    2
    25    27    24    2
    26    28    26   am
    27    28    15    1
    28    28    12    1
    29    29    14    1
    30    29    24   am
    31    29    13    1
    32    30    17    1
    33    30    26    1
    34    31    30    1
    35     1    32    1
    36     2    33    1
    37     4    34    1
    38     5    35    1
    39     6    36    1
    40     9    37    1
    41    10    38    1
    42    10    39    1
    43    11    40    1
    44    12    41    1
    45    12    42    1
    46    13    43    1
    47    13    44    1
    48    13    45    1
    49    14    46    1
    50    14    47    1
    51    14    48    1
    52    15    49    1
    53    15    50    1
    54    17    51    1
    55    19    52    1
    56    22    53    1
    57    30    54    1
    58    31    55    1
    59    31    56    1
