@<TRIPOS>MOLECULE
CMI
 60 63 0 0 0
SMALL
GASTEIGER

@<TRIPOS>ATOM
      1 C           7.4570   11.9820   20.5730 C.ar    1  UNL1       -0.0595
      2 C           8.0130   10.7140   20.8820 C.ar    1  UNL1       -0.0376
      3 C           7.1660    9.6030   21.0760 C.ar    1  UNL1        0.0502
      4 C           5.7540    9.7540   20.9470 C.ar    1  UNL1        0.0035
      5 C           5.2170   11.0010   20.6260 C.ar    1  UNL1       -0.0413
      6 C           6.0560   12.1250   20.4500 C.ar    1  UNL1       -0.0582
      7 N           7.4380    8.2950   21.4090 N.ar    1  UNL1       -0.3318
      8 C           6.2680    7.5920   21.4950 C.ar    1  UNL1        0.1057
      9 C           5.1990    8.4850   21.2140 C.ar    1  UNL1       -0.0237
     10 C           3.7750   11.1830   20.3940 C.3     1  UNL1       -0.0391
     11 C           6.1630    6.2020   21.7560 C.2     1  UNL1        0.2608
     12 N           6.7780    5.3650   20.8920 N.am    1  UNL1       -0.3060
     13 O           5.5680    5.7890   22.7570 O.2     1  UNL1       -0.2686
     14 C           6.6020    3.9150   21.0050 C.3     1  UNL1        0.0372
     15 C           6.7860    3.1200   19.7350 C.ar    1  UNL1       -0.0298
     16 C           5.9030    3.4030   18.6890 C.ar    1  UNL1       -0.0541
     17 C           6.0740    2.7760   17.4540 C.ar    1  UNL1       -0.0499
     18 C           7.0900    1.8390   17.2610 C.ar    1  UNL1       -0.0559
     19 C           5.2150    3.1420   16.3280 C.3     1  UNL1       -0.0397
     20 C           7.9610    1.5200   18.2950 C.ar    1  UNL1       -0.0499
     21 C           7.8170    2.1670   19.5430 C.ar    1  UNL1       -0.0541
     22 C           9.0130    0.5160   18.0490 C.3     1  UNL1       -0.0397
     23 C           8.7830    7.7960   21.7380 C.3     1  UNL1        0.0490
     24 C           9.1880    8.0720   23.1440 C.ar    1  UNL1       -0.0269
     25 C          10.3470    8.8020   23.4650 C.ar    1  UNL1       -0.0568
     26 C          10.7520    8.9480   24.7890 C.ar    1  UNL1       -0.0606
     27 C           9.9720    8.3630   25.7890 C.ar    1  UNL1       -0.0469
     28 C           8.7820    7.6570   25.4890 C.ar    1  UNL1        0.0650
     29 C           8.3940    7.5230   24.1470 C.ar    1  UNL1       -0.0420
     30 C           7.9770    7.0350   26.5630 C.2     1  UNL1        0.3081
     31 N           8.5520    6.6160   27.6960 N.2     1  UNL1       -0.0994
     32 N           6.6670    6.8480   26.4250 N.pl3   1  UNL1       -0.2466
     33 H           8.1146   12.8520   20.4294 H       1  UNL1        0.0618
     34 H           9.1032   10.5974   20.9702 H       1  UNL1        0.0638
     35 H           5.6200   13.1079   20.2180 H       1  UNL1        0.0620
     36 H           4.1286    8.2316   21.2061 H       1  UNL1        0.0646
     37 H           3.2536   11.2488   21.3603 H       1  UNL1        0.0278
     38 H           3.6093   12.1092   19.8241 H       1  UNL1        0.0278
     39 H           3.3844   10.3270   19.8241 H       1  UNL1        0.0278
     40 H           7.3761    5.7499   20.1470 H       1  UNL1        0.1494
     41 H           7.3308    3.5449   21.7411 H       1  UNL1        0.0512
     42 H           5.5511    3.7679   21.2946 H       1  UNL1        0.0512
     43 H           5.0784    4.1155   18.8384 H       1  UNL1        0.0623
     44 H           7.2020    1.3492   16.2824 H       1  UNL1        0.0623
     45 H           4.2652    3.5467   16.7078 H       1  UNL1        0.0278
     46 H           5.7189    3.9036   15.7148 H       1  UNL1        0.0278
     47 H           5.0148    2.2510   15.7148 H       1  UNL1        0.0278
     48 H           8.5064    1.9305   20.3669 H       1  UNL1        0.0623
     49 H           9.3997    0.1470   19.0104 H       1  UNL1        0.0278
     50 H           8.5919   -0.3236   17.4766 H       1  UNL1        0.0278
     51 H           9.8321    0.9758   17.4766 H       1  UNL1        0.0278
     52 H           8.8003    6.7079   21.5772 H       1  UNL1        0.0541
     53 H           9.4940    8.3238   21.0854 H       1  UNL1        0.0541
     54 H          10.9398    9.2625   22.6610 H       1  UNL1        0.0621
     55 H          11.6634    9.5100   25.0411 H       1  UNL1        0.0618
     56 H          10.2908    8.4532   26.8379 H       1  UNL1        0.0626
     57 H           7.4683    6.9875   23.8893 H       1  UNL1        0.0629
     58 H           7.9791    6.1847   28.4354 H       1  UNL1        0.3633
     59 H           6.1259    6.4129   27.1858 H       1  UNL1        0.2884
     60 H           6.1939    7.1383   25.5574 H       1  UNL1        0.2884
@<TRIPOS>BOND
     1     2     1   ar
     2     3     2   ar
     3     4     3   ar
     4     5     4   ar
     5     6     5   ar
     6     6     1   ar
     7     7     3   ar
     8     8     7   ar
     9     9     8   ar
    10     9     4   ar
    11    10     5    1
    12    11     8    1
    13    12    11   am
    14    13    11    2
    15    14    12    1
    16    15    14    1
    17    16    15   ar
    18    17    16   ar
    19    18    17   ar
    20    19    17    1
    21    20    18   ar
    22    21    20   ar
    23    21    15   ar
    24    22    20    1
    25    23     7    1
    26    24    23    1
    27    25    24   ar
    28    26    25   ar
    29    27    26   ar
    30    28    27   ar
    31    29    28   ar
    32    29    24   ar
    33    30    28    1
    34    31    30    2
    35    32    30    1
    36     1    33    1
    37     2    34    1
    38     6    35    1
    39     9    36    1
    40    10    37    1
    41    10    38    1
    42    10    39    1
    43    12    40    1
    44    14    41    1
    45    14    42    1
    46    16    43    1
    47    18    44    1
    48    19    45    1
    49    19    46    1
    50    19    47    1
    51    21    48    1
    52    22    49    1
    53    22    50    1
    54    22    51    1
    55    23    52    1
    56    23    53    1
    57    25    54    1
    58    26    55    1
    59    27    56    1
    60    29    57    1
    61    31    58    1
    62    32    59    1
    63    32    60    1
