@<TRIPOS>MOLECULE
BQN
 61 64 0 0 0
SMALL
GASTEIGER

@<TRIPOS>ATOM
      1 C         -17.7400   17.4300   -8.1390 C.ar    1  UNL1       -0.0126
      2 C         -17.6140   16.4810   -7.1060 C.ar    1  UNL1        0.0746
      3 C         -18.6060   16.4030   -6.0960 C.ar    1  UNL1        0.0807
      4 C         -19.6800   17.3070   -6.1220 C.ar    1  UNL1        0.0251
      5 C         -19.7750   18.2520   -7.1460 C.ar    1  UNL1       -0.0469
      6 C         -18.8130   18.3180   -8.1440 C.ar    1  UNL1       -0.0530
      7 S         -20.9290   17.2950   -4.9640 S.3     1  UNL1       -0.0852
      8 C         -20.9460   18.8120   -4.1920 C.ar    1  UNL1        0.0544
      9 C         -20.1180   19.0120   -3.0930 C.ar    1  UNL1       -0.0445
     10 C         -20.0960   20.2470   -2.4460 C.ar    1  UNL1       -0.0605
     11 C         -20.9060   21.2860   -2.8980 C.ar    1  UNL1       -0.0582
     12 C         -21.7380   21.0890   -3.9960 C.ar    1  UNL1       -0.0188
     13 C         -21.7580   19.8530   -4.6490 C.ar    1  UNL1        0.1346
     14 O         -22.5710   19.6500   -5.7410 O.3     1  UNL1       -0.4862
     15 C         -23.0070   20.7210   -6.5910 C.3     1  UNL1        0.1161
     16 C         -22.3770   20.5810   -7.9610 C.ar    1  UNL1        0.0077
     17 C         -21.3830   21.4710   -8.3640 C.ar    1  UNL1        0.0339
     18 N         -20.8190   21.3550   -9.5780 N.ar    1  UNL1       -0.2629
     19 C         -21.1870   20.3920  -10.4380 C.ar    1  UNL1        0.0276
     20 C         -22.1780   19.4740  -10.0840 C.ar    1  UNL1       -0.0432
     21 C         -22.7820   19.5720   -8.8310 C.ar    1  UNL1       -0.0525
     22 C         -18.4930   15.4100   -4.9430 C.3     1  UNL1        0.4190
     23 F         -18.7300   14.1760   -5.2960 F       1  UNL1       -0.1658
     24 F         -19.3170   15.7140   -3.9550 F       1  UNL1       -0.1658
     25 F         -17.2870   15.5070   -4.4080 F       1  UNL1       -0.1658
     26 C         -16.4630   15.4970   -7.1550 C.3     1  UNL1        0.4185
     27 F         -15.9430   15.4360   -8.3620 F       1  UNL1       -0.1659
     28 F         -16.9660   14.2870   -6.9900 F       1  UNL1       -0.1659
     29 F         -15.5090   15.7110   -6.2760 F       1  UNL1       -0.1659
     30 C         -16.7070   17.5370   -9.2120 C.2     1  UNL1       -0.0491
     31 C         -16.9940   17.6210  -10.5160 C.2     1  UNL1        0.0009
     32 C         -15.9010   17.7830  -11.5010 C.2     1  UNL1        0.2396
     33 N         -15.6600   18.9690  -12.0670 N.am    1  UNL1       -0.2936
     34 C         -14.6070   19.1100  -13.0720 C.3     1  UNL1        0.0385
     35 C         -16.3890   20.2010  -11.7540 C.3     1  UNL1        0.0385
     36 C         -13.5980   20.0530  -12.4280 C.3     1  UNL1        0.0635
     37 O         -14.2530   21.2990  -12.1980 O.3     1  UNL1       -0.3767
     38 C         -15.3410   21.2030  -11.2630 C.3     1  UNL1        0.0635
     39 O         -15.2060   16.8120  -11.7530 O.2     1  UNL1       -0.2706
     40 H         -20.6229   18.9526   -7.1616 H       1  UNL1        0.0629
     41 H         -18.8980   19.0725   -8.9399 H       1  UNL1        0.0624
     42 H         -19.4781   18.1931   -2.7327 H       1  UNL1        0.0630
     43 H         -19.4383   20.4008   -1.5778 H       1  UNL1        0.0618
     44 H         -20.8881   22.2605   -2.3880 H       1  UNL1        0.0619
     45 H         -22.3813   21.9076   -4.3509 H       1  UNL1        0.0654
     46 H         -24.1022   20.6869   -6.6880 H       1  UNL1        0.0748
     47 H         -22.7025   21.6811   -6.1488 H       1  UNL1        0.0748
     48 H         -21.0584   22.2728   -7.6845 H       1  UNL1        0.0833
     49 H         -20.7061   20.3258  -11.4251 H       1  UNL1        0.0829
     50 H         -22.4788   18.6823  -10.7859 H       1  UNL1        0.0633
     51 H         -23.5678   18.8619   -8.5339 H       1  UNL1        0.0622
     52 H         -15.6485   17.5474   -8.9128 H       1  UNL1        0.0625
     53 H         -18.0391   17.5698  -10.8552 H       1  UNL1        0.0670
     54 H         -14.1452   18.1362  -13.2922 H       1  UNL1        0.0487
     55 H         -14.9883   19.4923  -14.0304 H       1  UNL1        0.0487
     56 H         -16.8924   20.5854  -12.6533 H       1  UNL1        0.0487
     57 H         -17.1644   20.0263  -10.9936 H       1  UNL1        0.0487
     58 H         -13.2481   19.6321  -11.4738 H       1  UNL1        0.0575
     59 H         -12.7269   20.1917  -13.0852 H       1  UNL1        0.0575
     60 H         -15.8105   22.1916  -11.1524 H       1  UNL1        0.0575
     61 H         -14.9470   20.8575  -10.2958 H       1  UNL1        0.0575
@<TRIPOS>BOND
     1     2     1   ar
     2     3     2   ar
     3     4     3   ar
     4     5     4   ar
     5     6     5   ar
     6     6     1   ar
     7     7     4    1
     8     8     7    1
     9     9     8   ar
    10    10     9   ar
    11    11    10   ar
    12    12    11   ar
    13    13    12   ar
    14    13     8   ar
    15    14    13    1
    16    15    14    1
    17    16    15    1
    18    17    16   ar
    19    18    17   ar
    20    19    18   ar
    21    20    19   ar
    22    21    20   ar
    23    21    16   ar
    24    22     3    1
    25    23    22    1
    26    24    22    1
    27    25    22    1
    28    26     2    1
    29    27    26    1
    30    28    26    1
    31    29    26    1
    32    30     1    1
    33    31    30    2
    34    32    31    1
    35    33    32   am
    36    34    33    1
    37    35    33    1
    38    36    34    1
    39    37    36    1
    40    38    35    1
    41    38    37    1
    42    39    32    2
    43     5    40    1
    44     6    41    1
    45     9    42    1
    46    10    43    1
    47    11    44    1
    48    12    45    1
    49    15    46    1
    50    15    47    1
    51    17    48    1
    52    19    49    1
    53    20    50    1
    54    21    51    1
    55    30    52    1
    56    31    53    1
    57    34    54    1
    58    34    55    1
    59    35    56    1
    60    35    57    1
    61    36    58    1
    62    36    59    1
    63    38    60    1
    64    38    61    1
