NDZ
 OpenBabel05132216573D

 37 38  0  0  0  0  0  0  0  0999 V2000
   -6.1390   22.2690    9.1030 C   0  0  1  0  0  0  0  0  0  0  0  0
   -6.1580   21.8260   10.5610 C   0  0  2  0  0  0  0  0  0  0  0  0
   -5.0750   22.5440   11.3580 C   0  0  2  0  0  0  0  0  0  0  0  0
   -2.7590   22.9150   11.2920 C   0  0  1  0  0  0  0  0  0  0  0  0
   -6.1880   23.7940    9.0360 C   0  0  0  0  0  0  0  0  0  0  0  0
   -4.8880   24.0280   11.0670 C   0  0  1  0  0  0  0  0  0  0  0  0
   -3.4410   24.2800   11.4700 C   0  0  0  0  0  0  0  0  0  0  0  0
   -4.9440   21.8090    8.4500 O   0  0  0  0  0  0  0  0  0  0  0  0
   -5.9970   20.4000   10.6690 O   0  0  0  0  0  0  0  0  0  0  0  0
   -3.8120   21.9830   11.0170 O   0  0  0  0  0  0  0  0  0  0  0  0
   -5.0340   24.3520    9.6750 O   0  0  0  0  0  0  0  0  0  0  0  0
   -1.8390   22.9430   10.0860 C   0  0  0  0  0  0  0  0  0  0  0  0
   -1.5040   24.0740    9.6350 O   0  0  0  0  0  0  0  0  0  0  0  0
   -1.4750   21.8480    9.5770 O   0  0  0  0  0  0  0  0  0  0  0  0
   -2.0270   22.5260   12.5770 C   0  0  0  0  0  0  0  0  0  0  0  0
   -2.2930   21.1010   13.0650 C   0  0  2  0  0  0  0  0  0  0  0  0
   -3.6250   20.9410   13.6350 N   0  0  0  0  0  0  0  0  0  0  0  0
   -1.2400   20.7240   14.0750 C   0  0  0  0  0  0  0  0  0  0  0  0
   -1.5710   20.3590   15.2300 O   0  0  0  0  0  0  0  0  0  0  0  0
   -0.0510   20.8230   13.7050 O   0  0  0  0  0  0  0  0  0  0  0  0
   -6.9896   21.8498    8.6073 H   0  0  0  0  0  0  0  0  0  0  0  0
   -7.1112   22.0877   10.9707 H   0  0  0  0  0  0  0  0  0  0  0  0
   -5.3938   22.4282   12.3728 H   0  0  0  0  0  0  0  0  0  0  0  0
   -7.0700   24.1419    9.5319 H   0  0  0  0  0  0  0  0  0  0  0  0
   -6.2025   24.0992    8.0106 H   0  0  0  0  0  0  0  0  0  0  0  0
   -5.6185   24.6147   11.5837 H   0  0  0  0  0  0  0  0  0  0  0  0
   -3.3812   24.6046   12.4878 H   0  0  0  0  0  0  0  0  0  0  0  0
   -2.9800   25.0486   10.8856 H   0  0  0  0  0  0  0  0  0  0  0  0
   -4.1678   22.1850    8.8939 H   0  0  0  0  0  0  0  0  0  0  0  0
   -5.1367   20.1430   10.3019 H   0  0  0  0  0  0  0  0  0  0  0  0
   -1.7560   21.0386    9.9564 H   0  0  0  0  0  0  0  0  0  0  0  0
   -2.3283   23.2031   13.3488 H   0  0  0  0  0  0  0  0  0  0  0  0
   -0.9819   22.5758   12.3532 H   0  0  0  0  0  0  0  0  0  0  0  0
   -2.2460   20.4487   12.2181 H   0  0  0  0  0  0  0  0  0  0  0  0
   -3.7207   21.5460   14.4506 H   0  0  0  0  0  0  0  0  0  0  0  0
   -3.7608   19.9695   13.9145 H   0  0  0  0  0  0  0  0  0  0  0  0
    0.1465   21.0998   12.8319 H   0  0  0  0  0  0  0  0  0  0  0  0
  1 21  1  6  0  0  0
  2  1  1  0  0  0  0
  2 22  1  1  0  0  0
  3  2  1  0  0  0  0
  3 23  1  1  0  0  0
  4 12  1  6  0  0  0
  5  1  1  0  0  0  0
  5 24  1  0  0  0  0
  5 25  1  0  0  0  0
  6  3  1  0  0  0  0
  6 26  1  1  0  0  0
  7  6  1  0  0  0  0
  7  4  1  0  0  0  0
  7 27  1  0  0  0  0
  7 28  1  0  0  0  0
  8  1  1  0  0  0  0
  8 29  1  0  0  0  0
  9  2  1  0  0  0  0
  9 30  1  0  0  0  0
 10  4  1  0  0  0  0
 10  3  1  0  0  0  0
 11  5  1  0  0  0  0
 11  6  1  0  0  0  0
 13 12  2  0  0  0  0
 14 12  1  0  0  0  0
 14 31  1  0  0  0  0
 15  4  1  0  0  0  0
 15 32  1  0  0  0  0
 15 33  1  0  0  0  0
 16 15  1  0  0  0  0
 16 34  1  6  0  0  0
 17 16  1  0  0  0  0
 17 35  1  0  0  0  0
 17 36  1  0  0  0  0
 18 16  1  0  0  0  0
 19 18  2  0  0  0  0
 20 18  1  0  0  0  0
 20 37  1  0  0  0  0
M  END
$$$$
