@<TRIPOS>MOLECULE
NDZ
 37 38 0 0 0
SMALL
GASTEIGER

@<TRIPOS>ATOM
      1 C          -6.1390   22.2690    9.1030 C.3     1  UNL1        0.1068
      2 C          -6.1580   21.8260   10.5610 C.3     1  UNL1        0.1117
      3 C          -5.0750   22.5440   11.3580 C.3     1  UNL1        0.1145
      4 C          -2.7590   22.9150   11.2920 C.3     1  UNL1        0.1701
      5 C          -6.1880   23.7940    9.0360 C.3     1  UNL1        0.0766
      6 C          -4.8880   24.0280   11.0670 C.3     1  UNL1        0.0906
      7 C          -3.4410   24.2800   11.4700 C.3     1  UNL1        0.0157
      8 O          -4.9440   21.8090    8.4500 O.3     1  UNL1       -0.3869
      9 O          -5.9970   20.4000   10.6690 O.3     1  UNL1       -0.3865
     10 O          -3.8120   21.9830   11.0170 O.3     1  UNL1       -0.3536
     11 O          -5.0340   24.3520    9.6750 O.3     1  UNL1       -0.3712
     12 C          -1.8390   22.9430   10.0860 C.2     1  UNL1        0.3372
     13 O          -1.5040   24.0740    9.6350 O.2     1  UNL1       -0.2477
     14 O          -1.4750   21.8480    9.5770 O.3     1  UNL1       -0.4786
     15 C          -2.0270   22.5260   12.5770 C.3     1  UNL1        0.0124
     16 CA         -2.2930   21.1010   13.0650 C.3     1  UNL1        0.1064
     17 N          -3.6250   20.9410   13.6350 N.3     1  UNL1       -0.3183
     18 C          -1.2400   20.7240   14.0750 C.2     1  UNL1        0.3218
     19 O          -1.5710   20.3590   15.2300 O.2     1  UNL1       -0.2493
     20 OXT        -0.0510   20.8230   13.7050 O.3     1  UNL1       -0.4795
     21 H          -6.9896   21.8498    8.6073 H       1  UNL1        0.0643
     22 H          -7.1112   22.0877   10.9707 H       1  UNL1        0.0647
     23 H          -5.3938   22.4282   12.3728 H       1  UNL1        0.0649
     24 H          -7.0700   24.1419    9.5319 H       1  UNL1        0.0586
     25 H          -6.2025   24.0992    8.0106 H       1  UNL1        0.0586
     26 H          -5.6185   24.6147   11.5837 H       1  UNL1        0.0624
     27 H          -3.3812   24.6046   12.4878 H       1  UNL1        0.0324
     28 H          -2.9800   25.0486   10.8856 H       1  UNL1        0.0324
     29 H          -4.1678   22.1850    8.8939 H       1  UNL1        0.2100
     30 H          -5.1367   20.1430   10.3019 H       1  UNL1        0.2100
     31 H          -1.7560   21.0386    9.9564 H       1  UNL1        0.2951
     32 H          -2.3283   23.2031   13.3488 H       1  UNL1        0.0319
     33 H          -0.9819   22.5758   12.3532 H       1  UNL1        0.0319
     34 HA         -2.2460   20.4487   12.2181 H       1  UNL1        0.0575
     35 H1         -3.7207   21.5460   14.4506 H       1  UNL1        0.1190
     36 H2         -3.7608   19.9695   13.9145 H       1  UNL1        0.1190
     37 HXT         0.1465   21.0998   12.8319 H       1  UNL1        0.2951
@<TRIPOS>BOND
     1     2     1    1
     2     3     2    1
     3     5     1    1
     4     6     3    1
     5     7     6    1
     6     7     4    1
     7     8     1    1
     8     9     2    1
     9    10     4    1
    10    10     3    1
    11    11     5    1
    12    11     6    1
    13    12     4    1
    14    13    12    2
    15    14    12    1
    16    15     4    1
    17    16    15    1
    18    17    16    1
    19    18    16    1
    20    19    18    2
    21    20    18    1
    22     1    21    1
    23     2    22    1
    24     3    23    1
    25     5    24    1
    26     5    25    1
    27     6    26    1
    28     7    27    1
    29     7    28    1
    30     8    29    1
    31     9    30    1
    32    14    31    1
    33    15    32    1
    34    15    33    1
    35    16    34    1
    36    17    35    1
    37    17    36    1
    38    20    37    1
