@<TRIPOS>MOLECULE
CK9
 53 55 0 0 0
SMALL
GASTEIGER

@<TRIPOS>ATOM
      1 O           3.7620   -0.5450   -2.0570 O.3     1  LIG1       -0.5064
      2 C           4.4240   -0.6100   -0.8720 C.ar    1  LIG1        0.1215
      3 C           5.7190   -1.1070   -0.8250 C.ar    1  LIG1       -0.0199
      4 C           6.3890   -1.1730    0.3810 C.ar    1  LIG1       -0.0583
      5 C           5.7730   -0.7380    1.5400 C.ar    1  LIG1       -0.0612
      6 C           4.4850   -0.2370    1.4950 C.ar    1  LIG1       -0.0536
      7 C           3.8110   -0.1700    0.2920 C.ar    1  LIG1        0.0110
      8 C           2.4070    0.3760    0.2440 C.3     1  LIG1        0.0392
      9 N           1.4520   -0.7350    0.1980 N.pl3   1  LIG1       -0.3230
     10 C           0.0940   -0.4780    0.1490 C.ar    1  LIG1        0.1519
     11 C          -0.8350   -1.5320    0.1050 C.ar    1  LIG1        0.1476
     12 N          -0.7400   -2.8840    0.0950 N.ar    1  LIG1       -0.2306
     13 C          -1.9320   -3.4020    0.0460 C.ar    1  LIG1        0.0985
     14 C          -2.2020   -1.2130    0.0560 C.ar    1  LIG1        0.1674
     15 N          -2.8700   -2.4110    0.0200 N.ar    1  LIG1       -0.3123
     16 C          -4.3220   -2.5930   -0.0350 C.3     1  LIG1        0.0317
     17 C          -4.6920   -3.3600   -1.3070 C.3     1  LIG1       -0.0444
     18 C          -4.7840   -3.3840    1.1900 C.3     1  LIG1       -0.0444
     19 N          -2.5700    0.0650    0.0590 N.ar    1  LIG1       -0.1947
     20 C          -1.6620    1.0260    0.0970 C.ar    1  LIG1        0.2191
     21 N          -0.3610    0.7710    0.1430 N.ar    1  LIG1       -0.1974
     22 N          -2.0850    2.3460    0.0930 N.pl3   1  LIG1       -0.3083
     23 CA         -1.1010    3.4300    0.1390 C.3     1  LIG1        0.0461
     24 C          -1.7480    4.6810    0.7360 C.3     1  LIG1       -0.0352
     25 C          -2.1250    4.4140    2.1950 C.3     1  LIG1       -0.0635
     26 C          -0.6120    3.7360   -1.2780 C.3     1  LIG1        0.0626
     27 O          -1.6970    4.2430   -2.0570 O.3     1  LIG1       -0.3932
     28 H           3.2940   -1.3850   -2.1620 H       1  LIG1        0.2921
     29 H           6.2000   -1.4470   -1.7300 H       1  LIG1        0.0654
     30 H           7.3950   -1.5630    0.4180 H       1  LIG1        0.0619
     31 H           6.2990   -0.7890    2.4820 H       1  LIG1        0.0618
     32 H           4.0060    0.1020    2.4020 H       1  LIG1        0.0622
     33 H           2.2870    0.9940   -0.6460 H       1  LIG1        0.0512
     34 H           2.2200    0.9780    1.1330 H       1  LIG1        0.0512
     35 H           1.7730   -1.6500    0.2010 H       1  LIG1        0.1479
     36 H          -2.1480   -4.4600    0.0270 H       1  LIG1        0.1029
     37 H          -4.8100   -1.6190   -0.0440 H       1  LIG1        0.0523
     38 H          -5.7730   -3.4960   -1.3480 H       1  LIG1        0.0249
     39 H          -4.3630   -2.7970   -2.1800 H       1  LIG1        0.0249
     40 H          -4.2040   -4.3350   -1.2980 H       1  LIG1        0.0249
     41 H          -4.5210   -2.8370    2.0960 H       1  LIG1        0.0249
     42 H          -5.8650   -3.5190    1.1490 H       1  LIG1        0.0249
     43 H          -4.2960   -4.3580    1.1990 H       1  LIG1        0.0249
     44 H          -3.0320    2.5510    0.0590 H       1  LIG1        0.1493
     45 HA         -0.2560    3.1280    0.7580 H       1  LIG1        0.0521
     46 H          -2.6450    4.9320    0.1690 H       1  LIG1        0.0281
     47 H          -1.0450    5.5120    0.6890 H       1  LIG1        0.0281
     48 H          -2.5860    5.3050    2.6200 H       1  LIG1        0.0230
     49 H          -2.8290    3.5820    2.2420 H       1  LIG1        0.0230
     50 H          -1.2280    4.1630    2.7610 H       1  LIG1        0.0230
     51 H1          0.1840    4.4800   -1.2350 H       1  LIG1        0.0575
     52 H2         -0.2310    2.8230   -1.7360 H       1  LIG1        0.0575
     53 H          -1.3460    4.4220   -2.9410 H       1  LIG1        0.2095
@<TRIPOS>BOND
     1     1     2    1
     2     1    28    1
     3     2     3   ar
     4     2     7   ar
     5     3     4   ar
     6     3    29    1
     7     4     5   ar
     8     4    30    1
     9     5     6   ar
    10     5    31    1
    11     6     7   ar
    12     6    32    1
    13     7     8    1
    14     8     9    1
    15     8    33    1
    16     8    34    1
    17     9    10    1
    18     9    35    1
    19    10    11   ar
    20    10    21   ar
    21    11    12   ar
    22    11    14   ar
    23    12    13   ar
    24    13    15   ar
    25    13    36    1
    26    14    15   ar
    27    14    19   ar
    28    15    16    1
    29    16    17    1
    30    16    18    1
    31    16    37    1
    32    17    38    1
    33    17    39    1
    34    17    40    1
    35    18    41    1
    36    18    42    1
    37    18    43    1
    38    19    20   ar
    39    20    21   ar
    40    20    22    1
    41    22    23    1
    42    22    44    1
    43    23    24    1
    44    23    26    1
    45    23    45    1
    46    24    25    1
    47    24    46    1
    48    24    47    1
    49    25    48    1
    50    25    49    1
    51    25    50    1
    52    26    27    1
    53    26    51    1
    54    26    52    1
    55    27    53    1
