CK9
  Mrv15b2303062313562D          

 28 30  0  0  0  0            999 V2000
    0.9862   -2.4188    0.0000 O   0  5  0  0  0  0  0  0  0  0  0  0
    0.2717   -2.8313    0.0000 C   0  0  0  0  0  0  0  0  0  0  0  0
    0.2717   -3.6563    0.0000 C   0  0  0  0  0  0  0  0  0  0  0  0
   -0.4428   -4.0688    0.0000 C   0  0  0  0  0  0  0  0  0  0  0  0
   -1.1572   -3.6563    0.0000 C   0  0  0  0  0  0  0  0  0  0  0  0
   -1.1572   -2.8313    0.0000 C   0  0  0  0  0  0  0  0  0  0  0  0
   -0.4428   -2.4188    0.0000 C   0  0  0  0  0  0  0  0  0  0  0  0
   -0.4428   -1.5938    0.0000 C   0  0  0  0  0  0  0  0  0  0  0  0
    0.2717   -1.1813    0.0000 N   0  0  0  0  0  0  0  0  0  0  0  0
    0.2717   -0.3563    0.0000 C   0  0  0  0  0  0  0  0  0  0  0  0
   -0.4428    0.0562    0.0000 C   0  0  0  0  0  0  0  0  0  0  0  0
   -1.2274   -0.1988    0.0000 N   0  0  0  0  0  0  0  0  0  0  0  0
   -1.7123    0.4687    0.0000 C   0  0  0  0  0  0  0  0  0  0  0  0
   -0.4428    0.8812    0.0000 C   0  0  0  0  0  0  0  0  0  0  0  0
   -1.2274    1.1361    0.0000 N   0  0  0  0  0  0  0  0  0  0  0  0
   -1.4823    1.9207    0.0000 C   0  0  0  0  0  0  0  0  0  0  0  0
   -0.9303    2.5338    0.0000 C   0  0  0  0  0  0  0  0  0  0  0  0
   -2.2893    2.0922    0.0000 C   0  0  0  0  0  0  0  0  0  0  0  0
    0.2717    1.2937    0.0000 N   0  0  0  0  0  0  0  0  0  0  0  0
    0.9862    0.8812    0.0000 C   0  0  0  0  0  0  0  0  0  0  0  0
    0.9862    0.0562    0.0000 N   0  0  0  0  0  0  0  0  0  0  0  0
    1.7006    1.2937    0.0000 N   0  0  0  0  0  0  0  0  0  0  0  0
    1.7006    2.1187    0.0000 C   0  0  2  0  0  0  0  0  0  0  0  0
    2.4151    2.5312    0.0000 C   0  0  0  0  0  0  0  0  0  0  0  0
    2.4151    3.3562    0.0000 C   0  0  0  0  0  0  0  0  0  0  0  0
    0.9862    2.5312    0.0000 C   0  0  0  0  0  0  0  0  0  0  0  0
    0.9862    3.3562    0.0000 O   0  0  0  0  0  0  0  0  0  0  0  0
    1.7006   -2.8313    0.0000 H   0  0  0  0  0  0  0  0  0  0  0  0
  1  2  1  0  0  0  0
  1 28  1  0  0  0  0
  2  3  4  0  0  0  0
  2  7  4  0  0  0  0
  3  4  4  0  0  0  0
  4  5  4  0  0  0  0
  5  6  4  0  0  0  0
  6  7  4  0  0  0  0
  7  8  1  0  0  0  0
  8  9  1  0  0  0  0
  9 10  1  0  0  0  0
 10 11  4  0  0  0  0
 10 21  4  0  0  0  0
 11 12  4  0  0  0  0
 11 14  4  0  0  0  0
 12 13  4  0  0  0  0
 13 15  4  0  0  0  0
 14 15  4  0  0  0  0
 14 19  4  0  0  0  0
 15 16  1  0  0  0  0
 16 17  1  0  0  0  0
 16 18  1  0  0  0  0
 19 20  4  0  0  0  0
 20 21  4  0  0  0  0
 20 22  1  0  0  0  0
 23 22  1  1  0  0  0
 23 24  1  0  0  0  0
 23 26  1  0  0  0  0
 24 25  1  0  0  0  0
 26 27  1  0  0  0  0
M  CHG  1   1  -1
M  END
