CK9
  -OEChem-10012118193D

 53 55  0     1  0  0  0  0  0999 V2000
    3.7620   -0.5450   -2.0570 O   0  0  0  0  0  0  0  0  0  0  0  0
    4.4240   -0.6100   -0.8720 C   0  0  0  0  0  0  0  0  0  0  0  0
    5.7190   -1.1070   -0.8250 C   0  0  0  0  0  0  0  0  0  0  0  0
    6.3890   -1.1730    0.3810 C   0  0  0  0  0  0  0  0  0  0  0  0
    5.7730   -0.7380    1.5400 C   0  0  0  0  0  0  0  0  0  0  0  0
    4.4850   -0.2370    1.4950 C   0  0  0  0  0  0  0  0  0  0  0  0
    3.8110   -0.1700    0.2920 C   0  0  0  0  0  0  0  0  0  0  0  0
    2.4070    0.3760    0.2440 C   0  0  0  0  0  0  0  0  0  0  0  0
    1.4520   -0.7350    0.1980 N   0  0  0  0  0  0  0  0  0  0  0  0
    0.0940   -0.4780    0.1490 C   0  0  0  0  0  0  0  0  0  0  0  0
   -0.8350   -1.5320    0.1050 C   0  0  0  0  0  0  0  0  0  0  0  0
   -0.7400   -2.8840    0.0950 N   0  0  0  0  0  0  0  0  0  0  0  0
   -1.9320   -3.4020    0.0460 C   0  0  0  0  0  0  0  0  0  0  0  0
   -2.2020   -1.2130    0.0560 C   0  0  0  0  0  0  0  0  0  0  0  0
   -2.8700   -2.4110    0.0200 N   0  0  0  0  0  0  0  0  0  0  0  0
   -4.3220   -2.5930   -0.0350 C   0  0  0  0  0  0  0  0  0  0  0  0
   -4.6920   -3.3600   -1.3070 C   0  0  0  0  0  0  0  0  0  0  0  0
   -4.7840   -3.3840    1.1900 C   0  0  0  0  0  0  0  0  0  0  0  0
   -2.5700    0.0650    0.0590 N   0  0  0  0  0  0  0  0  0  0  0  0
   -1.6620    1.0260    0.0970 C   0  0  0  0  0  0  0  0  0  0  0  0
   -0.3610    0.7710    0.1430 N   0  0  0  0  0  0  0  0  0  0  0  0
   -2.0850    2.3460    0.0930 N   0  0  0  0  0  0  0  0  0  0  0  0
   -1.1010    3.4300    0.1390 C   0  0  2  0  0  0  0  0  0  0  0  0
   -1.7480    4.6810    0.7360 C   0  0  0  0  0  0  0  0  0  0  0  0
   -2.1250    4.4140    2.1950 C   0  0  0  0  0  0  0  0  0  0  0  0
   -0.6120    3.7360   -1.2780 C   0  0  0  0  0  0  0  0  0  0  0  0
   -1.6970    4.2430   -2.0570 O   0  0  0  0  0  0  0  0  0  0  0  0
    3.2940   -1.3850   -2.1620 H   0  0  0  0  0  0  0  0  0  0  0  0
    6.2000   -1.4470   -1.7300 H   0  0  0  0  0  0  0  0  0  0  0  0
    7.3950   -1.5630    0.4180 H   0  0  0  0  0  0  0  0  0  0  0  0
    6.2990   -0.7890    2.4820 H   0  0  0  0  0  0  0  0  0  0  0  0
    4.0060    0.1020    2.4020 H   0  0  0  0  0  0  0  0  0  0  0  0
    2.2870    0.9940   -0.6460 H   0  0  0  0  0  0  0  0  0  0  0  0
    2.2200    0.9780    1.1330 H   0  0  0  0  0  0  0  0  0  0  0  0
    1.7730   -1.6500    0.2010 H   0  0  0  0  0  0  0  0  0  0  0  0
   -2.1480   -4.4600    0.0270 H   0  0  0  0  0  0  0  0  0  0  0  0
   -4.8100   -1.6190   -0.0440 H   0  0  0  0  0  0  0  0  0  0  0  0
   -5.7730   -3.4960   -1.3480 H   0  0  0  0  0  0  0  0  0  0  0  0
   -4.3630   -2.7970   -2.1800 H   0  0  0  0  0  0  0  0  0  0  0  0
   -4.2040   -4.3350   -1.2980 H   0  0  0  0  0  0  0  0  0  0  0  0
   -4.5210   -2.8370    2.0960 H   0  0  0  0  0  0  0  0  0  0  0  0
   -5.8650   -3.5190    1.1490 H   0  0  0  0  0  0  0  0  0  0  0  0
   -4.2960   -4.3580    1.1990 H   0  0  0  0  0  0  0  0  0  0  0  0
   -3.0320    2.5510    0.0590 H   0  0  0  0  0  0  0  0  0  0  0  0
   -0.2560    3.1280    0.7580 H   0  0  0  0  0  0  0  0  0  0  0  0
   -2.6450    4.9320    0.1690 H   0  0  0  0  0  0  0  0  0  0  0  0
   -1.0450    5.5120    0.6890 H   0  0  0  0  0  0  0  0  0  0  0  0
   -2.5860    5.3050    2.6200 H   0  0  0  0  0  0  0  0  0  0  0  0
   -2.8290    3.5820    2.2420 H   0  0  0  0  0  0  0  0  0  0  0  0
   -1.2280    4.1630    2.7610 H   0  0  0  0  0  0  0  0  0  0  0  0
    0.1840    4.4800   -1.2350 H   0  0  0  0  0  0  0  0  0  0  0  0
   -0.2310    2.8230   -1.7360 H   0  0  0  0  0  0  0  0  0  0  0  0
   -1.3460    4.4220   -2.9410 H   0  0  0  0  0  0  0  0  0  0  0  0
  1  2  1  0  0  0  0
  1 28  1  0  0  0  0
  2  3  2  0  0  0  0
  2  7  1  0  0  0  0
  3  4  1  0  0  0  0
  3 29  1  0  0  0  0
  4  5  2  0  0  0  0
  4 30  1  0  0  0  0
  5  6  1  0  0  0  0
  5 31  1  0  0  0  0
  6  7  2  0  0  0  0
  6 32  1  0  0  0  0
  7  8  1  0  0  0  0
  8  9  1  0  0  0  0
  8 33  1  0  0  0  0
  8 34  1  0  0  0  0
  9 10  1  0  0  0  0
  9 35  1  0  0  0  0
 10 11  1  0  0  0  0
 10 21  2  0  0  0  0
 11 12  1  0  0  0  0
 11 14  2  0  0  0  0
 12 13  2  0  0  0  0
 13 15  1  0  0  0  0
 13 36  1  0  0  0  0
 14 15  1  0  0  0  0
 14 19  1  0  0  0  0
 15 16  1  0  0  0  0
 16 17  1  0  0  0  0
 16 18  1  0  0  0  0
 16 37  1  0  0  0  0
 17 38  1  0  0  0  0
 17 39  1  0  0  0  0
 17 40  1  0  0  0  0
 18 41  1  0  0  0  0
 18 42  1  0  0  0  0
 18 43  1  0  0  0  0
 19 20  2  0  0  0  0
 20 21  1  0  0  0  0
 20 22  1  0  0  0  0
 22 23  1  0  0  0  0
 22 44  1  0  0  0  0
 23 24  1  0  0  0  0
 23 26  1  0  0  0  0
 23 45  1  0  0  0  0
 24 25  1  0  0  0  0
 24 46  1  0  0  0  0
 24 47  1  0  0  0  0
 25 48  1  0  0  0  0
 25 49  1  0  0  0  0
 25 50  1  0  0  0  0
 26 27  1  0  0  0  0
 26 51  1  0  0  0  0
 26 52  1  0  0  0  0
 27 53  1  0  0  0  0
M  END
> <OPENEYE_ISO_SMILES>
CC[C@H](CO)Nc1nc(c2c(n1)n(cn2)C(C)C)NCc3ccccc3O

> <OPENEYE_INCHI>
InChI=1S/C19H26N6O2/c1-4-14(10-26)22-19-23-17(20-9-13-7-5-6-8-15(13)27)16-18(24-19)25(11-21-16)12(2)3/h5-8,11-12,14,26-27H,4,9-10H2,1-3H3,(H2,20,22,23,24)/t14-/m1/s1

> <OPENEYE_INCHIKEY>
NDUVSANREQEDRE-CQSZACIVSA-N

> <FORMULA>
C19H26N6O2

$$$$
