@<TRIPOS>MOLECULE
BA1
 66 69 0 0 0
SMALL
GASTEIGER

@<TRIPOS>ATOM
      1 O           3.8410   43.1080   17.4440 O.3     1  UNL1       -0.5059
      2 O           5.7010   43.1770   13.0660 O.3     1  UNL1       -0.5059
      3 C           6.5890   41.1930   16.0050 C.ar    1  UNL1        0.0659
      4 C           6.6070   41.6850   14.7150 C.ar    1  UNL1       -0.0053
      5 C           5.7110   42.6730   14.3520 C.ar    1  UNL1        0.1320
      6 C           4.8110   43.1460   15.2730 C.ar    1  UNL1        0.1050
      7 C           4.7540   42.6250   16.5580 C.ar    1  UNL1        0.1320
      8 C           5.6440   41.6390   16.9430 C.ar    1  UNL1       -0.0053
      9 C           7.5290   40.1460   16.2850 C.2     1  UNL1        0.3397
     10 O           8.0530   39.4690   15.3940 O.2     1  UNL1       -0.2449
     11 O           7.7940   39.8630   17.6640 O.3     1  UNL1       -0.4560
     12 C           8.3110   38.5690   18.0170 C.3     1  UNL1        0.1228
     13 C           9.0540   38.5990   19.3510 C.3     1  UNL1        0.0728
     14 C           8.3510   37.5310   20.1740 C.3     1  UNL1        0.0178
     15 N           7.1270   37.7900   20.9140 N.3     1  UNL1       -0.3141
     16 C           5.8530   37.8260   20.3310 C.3     1  UNL1       -0.0039
     17 C           5.8140   37.7970   18.7940 C.3     1  UNL1       -0.0370
     18 C           7.1300   37.6230   18.0480 C.3     1  UNL1       -0.0127
     19 N          10.4150   38.1670   19.3570 N.am    1  UNL1       -0.3037
     20 C          11.2930   39.1910   19.3930 C.2     1  UNL1        0.2444
     21 O          10.8330   40.3080   19.3810 O.2     1  UNL1       -0.2702
     22 C          12.8250   39.1360   19.5480 C.ar    1  UNL1        0.0369
     23 C          13.7190   40.2160   19.4580 C.ar    1  UNL1       -0.0462
     24 C          15.1410   40.0260   19.6460 C.ar    1  UNL1       -0.0195
     25 C          15.6400   38.7500   19.9450 C.ar    1  UNL1        0.1169
     26 O          17.0510   38.5230   20.1400 O.3     1  UNL1       -0.5068
     27 C          14.7360   37.6960   19.9990 C.ar    1  UNL1       -0.0195
     28 C          13.3640   37.8730   19.8080 C.ar    1  UNL1       -0.0462
     29 C           3.8530   44.1260   14.8100 C.2     1  UNL1        0.2044
     30 O           3.1280   43.7630   13.9240 O.2     1  UNL1       -0.2863
     31 C           3.6060   45.4580   15.3650 C.ar    1  UNL1        0.0778
     32 C           2.3510   45.6410   15.8710 C.ar    1  UNL1        0.1285
     33 C           1.9480   46.8520   16.4410 C.ar    1  UNL1       -0.0194
     34 O           1.5600   44.5410   15.8090 O.3     1  UNL1       -0.5060
     35 C           2.8940   47.8860   16.3880 C.ar    1  UNL1       -0.0575
     36 C           4.1820   47.7130   15.8110 C.ar    1  UNL1       -0.0468
     37 C           4.5510   46.4770   15.2780 C.ar    1  UNL1        0.0731
     38 C           5.8750   46.2440   14.7140 C.2     1  UNL1        0.3376
     39 O           6.8450   45.8880   15.5200 O.2     1  UNL1       -0.2451
     40 O           6.1590   46.3700   13.5050 O.3     1  UNL1       -0.4771
     41 H           3.7979   42.7384   18.3614 H       1  UNL1        0.2922
     42 H           5.0550   43.8846   12.8167 H       1  UNL1        0.2922
     43 H           7.3283   41.2940   13.9823 H       1  UNL1        0.0662
     44 H           5.6125   41.2152   17.9576 H       1  UNL1        0.0662
     45 H           9.0547   38.2335   17.2791 H       1  UNL1        0.0753
     46 H           9.0496   39.6466   19.6864 H       1  UNL1        0.0547
     47 H           8.1180   36.7130   19.4764 H       1  UNL1        0.0443
     48 H           9.0728   37.3639   20.9870 H       1  UNL1        0.0443
     49 H           7.0810   37.0623   21.6415 H       1  UNL1        0.1220
     50 H           5.2900   36.9553   20.6984 H       1  UNL1        0.0424
     51 H           5.4217   38.7957   20.6204 H       1  UNL1        0.0424
     52 H           5.1585   36.9643   18.4992 H       1  UNL1        0.0279
     53 H           5.4679   38.8016   18.5093 H       1  UNL1        0.0279
     54 H           7.5414   36.6749   18.4246 H       1  UNL1        0.0302
     55 H           6.7636   37.7779   17.0225 H       1  UNL1        0.0302
     56 H          10.6972   37.1766   19.3360 H       1  UNL1        0.1495
     57 H          13.3316   41.2224   19.2411 H       1  UNL1        0.0626
     58 H          15.8285   40.8798   19.5547 H       1  UNL1        0.0654
     59 H          17.3817   37.6139   20.3504 H       1  UNL1        0.2921
     60 H          15.1157   36.6833   20.1999 H       1  UNL1        0.0654
     61 H          12.6948   37.0018   19.8632 H       1  UNL1        0.0626
     62 H           0.9570   46.9849   16.8996 H       1  UNL1        0.0654
     63 H           0.6322   44.5785   16.1524 H       1  UNL1        0.2922
     64 H           2.6297   48.8675   16.8085 H       1  UNL1        0.0619
     65 H           4.8891   48.5552   15.7846 H       1  UNL1        0.0626
     66 H           7.0818   46.1946   13.1924 H       1  UNL1        0.2954
@<TRIPOS>BOND
     1     4     3   ar
     2     5     4   ar
     3     5     2    1
     4     6     5   ar
     5     7     6   ar
     6     7     1    1
     7     8     7   ar
     8     8     3   ar
     9     9     3    1
    10    10     9    2
    11    11     9    1
    12    12    11    1
    13    13    12    1
    14    14    13    1
    15    15    14    1
    16    16    15    1
    17    17    16    1
    18    18    17    1
    19    18    12    1
    20    19    13    1
    21    20    19   am
    22    21    20    2
    23    22    20    1
    24    23    22   ar
    25    24    23   ar
    26    25    24   ar
    27    26    25    1
    28    27    25   ar
    29    28    27   ar
    30    28    22   ar
    31    29     6    1
    32    30    29    2
    33    31    29    1
    34    32    31   ar
    35    33    32   ar
    36    34    32    1
    37    35    33   ar
    38    36    35   ar
    39    37    36   ar
    40    37    31   ar
    41    38    37    1
    42    39    38    2
    43    40    38    1
    44     1    41    1
    45     2    42    1
    46     4    43    1
    47     8    44    1
    48    12    45    1
    49    13    46    1
    50    14    47    1
    51    14    48    1
    52    15    49    1
    53    16    50    1
    54    16    51    1
    55    17    52    1
    56    17    53    1
    57    18    54    1
    58    18    55    1
    59    19    56    1
    60    23    57    1
    61    24    58    1
    62    26    59    1
    63    27    60    1
    64    28    61    1
    65    33    62    1
    66    34    63    1
    67    35    64    1
    68    36    65    1
    69    40    66    1
