BA1
 OpenBabel10212217193D

 66 69  0  0  0  0  0  0  0  0999 V2000
    3.8410   43.1080   17.4440 O   0  0  0  0  0  0  0  0  0  0  0  0
    5.7010   43.1770   13.0660 O   0  0  0  0  0  0  0  0  0  0  0  0
    6.5890   41.1930   16.0050 C   0  0  0  0  0  0  0  0  0  0  0  0
    6.6070   41.6850   14.7150 C   0  0  0  0  0  0  0  0  0  0  0  0
    5.7110   42.6730   14.3520 C   0  0  0  0  0  0  0  0  0  0  0  0
    4.8110   43.1460   15.2730 C   0  0  0  0  0  0  0  0  0  0  0  0
    4.7540   42.6250   16.5580 C   0  0  0  0  0  0  0  0  0  0  0  0
    5.6440   41.6390   16.9430 C   0  0  0  0  0  0  0  0  0  0  0  0
    7.5290   40.1460   16.2850 C   0  0  0  0  0  0  0  0  0  0  0  0
    8.0530   39.4690   15.3940 O   0  0  0  0  0  0  0  0  0  0  0  0
    7.7940   39.8630   17.6640 O   0  0  0  0  0  0  0  0  0  0  0  0
    8.3110   38.5690   18.0170 C   0  0  1  0  0  0  0  0  0  0  0  0
    9.0540   38.5990   19.3510 C   0  0  1  0  0  0  0  0  0  0  0  0
    8.3510   37.5310   20.1740 C   0  0  0  0  0  0  0  0  0  0  0  0
    7.1270   37.7900   20.9140 N   0  0  0  0  0  0  0  0  0  0  0  0
    5.8530   37.8260   20.3310 C   0  0  0  0  0  0  0  0  0  0  0  0
    5.8140   37.7970   18.7940 C   0  0  0  0  0  0  0  0  0  0  0  0
    7.1300   37.6230   18.0480 C   0  0  0  0  0  0  0  0  0  0  0  0
   10.4150   38.1670   19.3570 N   0  0  0  0  0  0  0  0  0  0  0  0
   11.2930   39.1910   19.3930 C   0  0  0  0  0  0  0  0  0  0  0  0
   10.8330   40.3080   19.3810 O   0  0  0  0  0  0  0  0  0  0  0  0
   12.8250   39.1360   19.5480 C   0  0  0  0  0  0  0  0  0  0  0  0
   13.7190   40.2160   19.4580 C   0  0  0  0  0  0  0  0  0  0  0  0
   15.1410   40.0260   19.6460 C   0  0  0  0  0  0  0  0  0  0  0  0
   15.6400   38.7500   19.9450 C   0  0  0  0  0  0  0  0  0  0  0  0
   17.0510   38.5230   20.1400 O   0  0  0  0  0  0  0  0  0  0  0  0
   14.7360   37.6960   19.9990 C   0  0  0  0  0  0  0  0  0  0  0  0
   13.3640   37.8730   19.8080 C   0  0  0  0  0  0  0  0  0  0  0  0
    3.8530   44.1260   14.8100 C   0  0  0  0  0  0  0  0  0  0  0  0
    3.1280   43.7630   13.9240 O   0  0  0  0  0  0  0  0  0  0  0  0
    3.6060   45.4580   15.3650 C   0  0  0  0  0  0  0  0  0  0  0  0
    2.3510   45.6410   15.8710 C   0  0  0  0  0  0  0  0  0  0  0  0
    1.9480   46.8520   16.4410 C   0  0  0  0  0  0  0  0  0  0  0  0
    1.5600   44.5410   15.8090 O   0  0  0  0  0  0  0  0  0  0  0  0
    2.8940   47.8860   16.3880 C   0  0  0  0  0  0  0  0  0  0  0  0
    4.1820   47.7130   15.8110 C   0  0  0  0  0  0  0  0  0  0  0  0
    4.5510   46.4770   15.2780 C   0  0  0  0  0  0  0  0  0  0  0  0
    5.8750   46.2440   14.7140 C   0  0  0  0  0  0  0  0  0  0  0  0
    6.8450   45.8880   15.5200 O   0  0  0  0  0  0  0  0  0  0  0  0
    6.1590   46.3700   13.5050 O   0  0  0  0  0  0  0  0  0  0  0  0
    3.7979   42.7384   18.3614 H   0  0  0  0  0  0  0  0  0  0  0  0
    5.0550   43.8846   12.8167 H   0  0  0  0  0  0  0  0  0  0  0  0
    7.3283   41.2940   13.9823 H   0  0  0  0  0  0  0  0  0  0  0  0
    5.6125   41.2152   17.9576 H   0  0  0  0  0  0  0  0  0  0  0  0
    9.0547   38.2335   17.2791 H   0  0  0  0  0  0  0  0  0  0  0  0
    9.0496   39.6466   19.6864 H   0  0  0  0  0  0  0  0  0  0  0  0
    8.1180   36.7130   19.4764 H   0  0  0  0  0  0  0  0  0  0  0  0
    9.0728   37.3639   20.9870 H   0  0  0  0  0  0  0  0  0  0  0  0
    7.0810   37.0623   21.6415 H   0  0  0  0  0  0  0  0  0  0  0  0
    5.2900   36.9553   20.6984 H   0  0  0  0  0  0  0  0  0  0  0  0
    5.4217   38.7957   20.6204 H   0  0  0  0  0  0  0  0  0  0  0  0
    5.1585   36.9643   18.4992 H   0  0  0  0  0  0  0  0  0  0  0  0
    5.4679   38.8016   18.5093 H   0  0  0  0  0  0  0  0  0  0  0  0
    7.5414   36.6749   18.4246 H   0  0  0  0  0  0  0  0  0  0  0  0
    6.7636   37.7779   17.0225 H   0  0  0  0  0  0  0  0  0  0  0  0
   10.6972   37.1766   19.3360 H   0  0  0  0  0  0  0  0  0  0  0  0
   13.3316   41.2224   19.2411 H   0  0  0  0  0  0  0  0  0  0  0  0
   15.8285   40.8798   19.5547 H   0  0  0  0  0  0  0  0  0  0  0  0
   17.3817   37.6139   20.3504 H   0  0  0  0  0  0  0  0  0  0  0  0
   15.1157   36.6833   20.1999 H   0  0  0  0  0  0  0  0  0  0  0  0
   12.6948   37.0018   19.8632 H   0  0  0  0  0  0  0  0  0  0  0  0
    0.9570   46.9849   16.8996 H   0  0  0  0  0  0  0  0  0  0  0  0
    0.6322   44.5785   16.1524 H   0  0  0  0  0  0  0  0  0  0  0  0
    2.6297   48.8675   16.8085 H   0  0  0  0  0  0  0  0  0  0  0  0
    4.8891   48.5552   15.7846 H   0  0  0  0  0  0  0  0  0  0  0  0
    7.0818   46.1946   13.1924 H   0  0  0  0  0  0  0  0  0  0  0  0
  1 41  1  0  0  0  0
  2 42  1  0  0  0  0
  4  3  2  0  0  0  0
  4 43  1  0  0  0  0
  5  4  1  0  0  0  0
  5  2  1  0  0  0  0
  6  5  2  0  0  0  0
  7  6  1  0  0  0  0
  7  1  1  0  0  0  0
  8  7  2  0  0  0  0
  8  3  1  0  0  0  0
  8 44  1  0  0  0  0
  9  3  1  0  0  0  0
 10  9  2  0  0  0  0
 11  9  1  0  0  0  0
 12 11  1  0  0  0  0
 12 45  1  6  0  0  0
 13 12  1  0  0  0  0
 13 46  1  1  0  0  0
 14 13  1  0  0  0  0
 14 47  1  0  0  0  0
 14 48  1  0  0  0  0
 15 14  1  0  0  0  0
 15 49  1  0  0  0  0
 16 15  1  0  0  0  0
 16 50  1  0  0  0  0
 16 51  1  0  0  0  0
 17 16  1  0  0  0  0
 17 52  1  0  0  0  0
 17 53  1  0  0  0  0
 18 17  1  0  0  0  0
 18 12  1  0  0  0  0
 18 54  1  0  0  0  0
 18 55  1  0  0  0  0
 19 13  1  0  0  0  0
 19 56  1  0  0  0  0
 20 19  1  0  0  0  0
 21 20  2  0  0  0  0
 22 20  1  0  0  0  0
 23 22  2  0  0  0  0
 23 57  1  0  0  0  0
 24 23  1  0  0  0  0
 24 58  1  0  0  0  0
 25 24  2  0  0  0  0
 26 25  1  0  0  0  0
 26 59  1  0  0  0  0
 27 25  1  0  0  0  0
 27 60  1  0  0  0  0
 28 27  2  0  0  0  0
 28 22  1  0  0  0  0
 28 61  1  0  0  0  0
 29  6  1  0  0  0  0
 30 29  2  0  0  0  0
 31 29  1  0  0  0  0
 32 31  2  0  0  0  0
 33 32  1  0  0  0  0
 33 62  1  0  0  0  0
 34 32  1  0  0  0  0
 34 63  1  0  0  0  0
 35 33  2  0  0  0  0
 35 64  1  0  0  0  0
 36 35  1  0  0  0  0
 36 65  1  0  0  0  0
 37 36  2  0  0  0  0
 37 31  1  0  0  0  0
 38 37  1  0  0  0  0
 39 38  2  0  0  0  0
 40 38  1  0  0  0  0
 40 66  1  0  0  0  0
M  END
$$$$
