@<TRIPOS>MOLECULE
761
 28 29 0 0 0
SMALL
GASTEIGER

@<TRIPOS>ATOM
      1 C          45.1600   16.0610   -2.8270 C.ar    1  UNL1       -0.0612
      2 C          45.1450   16.1280   -1.4360 C.ar    1  UNL1       -0.0540
      3 C          45.3700   14.9940   -0.6630 C.ar    1  UNL1       -0.0161
      4 C          45.6230   13.7700   -1.3070 C.ar    1  UNL1       -0.0170
      5 C          45.6510   13.7000   -2.7200 C.ar    1  UNL1       -0.0540
      6 C          45.4390   14.8500   -3.4690 C.ar    1  UNL1       -0.0612
      7 C          45.4340   15.0380    0.7410 C.ar    1  UNL1       -0.0319
      8 C          45.6650   13.8600    1.4650 C.ar    1  UNL1        0.0485
      9 C          45.8290   12.6280    0.8080 C.ar    1  UNL1        0.0806
     10 C          45.8010   12.5830   -0.5960 C.ar    1  UNL1       -0.0382
     11 N          45.8160   13.8350    2.8130 N.am    1  UNL1       -0.2754
     12 C          46.7750   14.3900    3.5820 C.2     1  UNL1        0.3254
     13 O          47.8700   14.7880    3.1510 O.2     1  UNL1       -0.2627
     14 C          46.4680   14.5020    5.1150 C.2     1  UNL1        0.3926
     15 O          45.8660   13.6430    5.7120 O.2     1  UNL1       -0.2399
     16 O          47.0030   15.5900    5.7520 O.3     1  UNL1       -0.4740
     17 C          45.8620   11.3910    1.5750 C.2     1  UNL1        0.3386
     18 O          46.8250   11.0240    2.1610 O.2     1  UNL1       -0.2451
     19 O          44.7030   10.7430    1.5640 O.3     1  UNL1       -0.4771
     20 H          44.9520   16.9624   -3.4221 H       1  UNL1        0.0618
     21 H          44.9524   17.0916   -0.9417 H       1  UNL1        0.0624
     22 H          45.8397   12.7398   -3.2224 H       1  UNL1        0.0624
     23 H          45.4905   14.8086   -4.5670 H       1  UNL1        0.0618
     24 H          45.3032   15.9938    1.2696 H       1  UNL1        0.0642
     25 H          45.9176   11.6265   -1.1265 H       1  UNL1        0.0632
     26 H          45.0899   13.3145    3.3256 H       1  UNL1        0.1554
     27 H          46.8480   15.7221    6.7208 H       1  UNL1        0.2956
     28 H          44.6095    9.8876    2.0536 H       1  UNL1        0.2954
@<TRIPOS>BOND
     1     2     1   ar
     2     3     2   ar
     3     4     3   ar
     4     5     4   ar
     5     6     5   ar
     6     6     1   ar
     7     7     3   ar
     8     8     7   ar
     9     9     8   ar
    10    10     9   ar
    11    10     4   ar
    12    11     8    1
    13    12    11   am
    14    13    12    2
    15    14    12    1
    16    15    14    2
    17    16    14    1
    18    17     9    1
    19    18    17    2
    20    19    17    1
    21     1    20    1
    22     2    21    1
    23     5    22    1
    24     6    23    1
    25     7    24    1
    26    10    25    1
    27    11    26    1
    28    16    27    1
    29    19    28    1
