3HW
 OpenBabel11032217093D

 59 63  0  0  0  0  0  0  0  0999 V2000
   -1.6720   11.0200   -1.4030 C   0  0  0  0  0  0  0  0  0  0  0  0
   -1.9890   10.3740   -0.2170 C   0  0  0  0  0  0  0  0  0  0  0  0
   -3.0490   10.8230    0.5540 C   0  0  0  0  0  0  0  0  0  0  0  0
   -3.7900   11.9170    0.1320 C   0  0  0  0  0  0  0  0  0  0  0  0
   -3.4810   12.5580   -1.0530 C   0  0  0  0  0  0  0  0  0  0  0  0
   -2.4170   12.1160   -1.8150 C   0  0  0  0  0  0  0  0  0  0  0  0
   -4.9370   12.4110    0.9360 C   0  0  0  0  0  0  0  0  0  0  0  0
   -6.4100   12.5410    0.1710 S   0  0  0  0  0  0  0  0  0  0  0  0
   -4.6680   13.0930    2.1650 N   0  0  0  0  0  0  0  0  0  0  0  0
   -4.2660   14.4610    1.9930 C   0  0  0  0  0  0  0  0  0  0  0  0
   -2.8840   14.9270    2.3060 C   0  0  0  0  0  0  0  0  0  0  0  0
   -2.7380   15.8690    3.3100 C   0  0  0  0  0  0  0  0  0  0  0  0
   -1.4840   16.3530    3.6350 C   0  0  0  0  0  0  0  0  0  0  0  0
   -0.3690   15.8870    2.9590 C   0  0  0  0  0  0  0  0  0  0  0  0
   -0.5070   14.9580    1.9370 C   0  0  0  0  0  0  0  0  0  0  0  0
   -1.7670   14.4720    1.6090 C   0  0  0  0  0  0  0  0  0  0  0  0
    0.9680   16.4300    3.2950 C   0  0  0  0  0  0  0  0  0  0  0  0
    1.8170   17.1830    2.4750 C   0  0  0  0  0  0  0  0  0  0  0  0
    2.9930   17.4120    3.2610 C   0  0  0  0  0  0  0  0  0  0  0  0
    2.7400   16.7820    4.4830 C   0  0  0  0  0  0  0  0  0  0  0  0
    1.5650   16.2240    4.4340 O   0  0  0  0  0  0  0  0  0  0  0  0
    3.6100   16.6840    5.6780 C   0  0  0  0  0  0  0  0  0  0  0  0
    4.7820   16.2290    5.5980 O   0  0  0  0  0  0  0  0  0  0  0  0
    3.1300   17.0630    6.7780 O   0  0  0  0  0  0  0  0  0  0  0  0
   -0.5350   10.5280   -2.2230 C   0  0  0  0  0  0  0  0  0  0  0  0
    0.7590   10.7040   -1.9740 N   0  0  0  0  0  0  0  0  0  0  0  0
    1.4980   10.1470   -2.9120 N   0  0  0  0  0  0  0  0  0  0  0  0
    0.7230    9.5950   -3.8300 C   0  0  0  0  0  0  0  0  0  0  0  0
   -0.6290    9.8090   -3.4470 C   0  0  0  0  0  0  0  0  0  0  0  0
    1.2970   11.3680   -0.8320 C   0  0  0  0  0  0  0  0  0  0  0  0
    1.5630   10.6710    0.3340 C   0  0  0  0  0  0  0  0  0  0  0  0
    2.0960   11.3450    1.4180 C   0  0  0  0  0  0  0  0  0  0  0  0
    2.4110   10.4740    2.8730 Cl  0  0  0  0  0  0  0  0  0  0  0  0
    2.3620   12.7020    1.3420 C   0  0  0  0  0  0  0  0  0  0  0  0
    3.0180   13.5580    2.6870 Cl  0  0  0  0  0  0  0  0  0  0  0  0
    2.1020   13.3930    0.1760 C   0  0  0  0  0  0  0  0  0  0  0  0
    1.5710   12.7240   -0.9120 C   0  0  0  0  0  0  0  0  0  0  0  0
    1.2170    8.8830   -5.0380 C   0  0  0  0  0  0  0  0  0  0  0  0
    2.4310    8.9930   -5.3560 O   0  0  0  0  0  0  0  0  0  0  0  0
    0.4240    8.1970   -5.7310 O   0  0  0  0  0  0  0  0  0  0  0  0
   -1.3990    9.5056    0.1112 H   0  0  0  0  0  0  0  0  0  0  0  0
   -3.3017   10.3144    1.4961 H   0  0  0  0  0  0  0  0  0  0  0  0
   -4.0804   13.4173   -1.3881 H   0  0  0  0  0  0  0  0  0  0  0  0
   -2.1596   12.6340   -2.7506 H   0  0  0  0  0  0  0  0  0  0  0  0
   -4.7547   12.6441    3.0880 H   0  0  0  0  0  0  0  0  0  0  0  0
   -4.4387   14.7011    0.9335 H   0  0  0  0  0  0  0  0  0  0  0  0
   -4.8611   14.9737    2.7631 H   0  0  0  0  0  0  0  0  0  0  0  0
   -3.6232   16.2340    3.8515 H   0  0  0  0  0  0  0  0  0  0  0  0
   -1.3725   17.1064    4.4287 H   0  0  0  0  0  0  0  0  0  0  0  0
    0.3792   14.6071    1.3878 H   0  0  0  0  0  0  0  0  0  0  0  0
   -1.8817   13.7320    0.8033 H   0  0  0  0  0  0  0  0  0  0  0  0
    1.6229   17.5253    1.4478 H   0  0  0  0  0  0  0  0  0  0  0  0
    3.8981   17.9636    2.9668 H   0  0  0  0  0  0  0  0  0  0  0  0
    3.6786   17.0140    7.6006 H   0  0  0  0  0  0  0  0  0  0  0  0
   -1.5396    9.4913   -3.9760 H   0  0  0  0  0  0  0  0  0  0  0  0
    1.3529    9.5931    0.3978 H   0  0  0  0  0  0  0  0  0  0  0  0
    2.3159   14.4701    0.1122 H   0  0  0  0  0  0  0  0  0  0  0  0
    1.3654   13.2705   -1.8443 H   0  0  0  0  0  0  0  0  0  0  0  0
    0.7527    7.7228   -6.5355 H   0  0  0  0  0  0  0  0  0  0  0  0
  2  1  2  0  0  0  0
  2 41  1  0  0  0  0
  3  2  1  0  0  0  0
  3 42  1  0  0  0  0
  4  3  2  0  0  0  0
  5  4  1  0  0  0  0
  5 43  1  0  0  0  0
  6  5  2  0  0  0  0
  6  1  1  0  0  0  0
  6 44  1  0  0  0  0
  7  4  1  0  0  0  0
  8  7  2  0  0  0  0
  9  7  1  0  0  0  0
  9 45  1  0  0  0  0
 10  9  1  0  0  0  0
 10 46  1  0  0  0  0
 10 47  1  0  0  0  0
 11 10  1  0  0  0  0
 12 11  2  0  0  0  0
 12 48  1  0  0  0  0
 13 12  1  0  0  0  0
 13 49  1  0  0  0  0
 14 13  2  0  0  0  0
 15 14  1  0  0  0  0
 15 50  1  0  0  0  0
 16 15  2  0  0  0  0
 16 11  1  0  0  0  0
 16 51  1  0  0  0  0
 17 14  1  0  0  0  0
 18 17  2  0  0  0  0
 18 52  1  0  0  0  0
 19 18  1  0  0  0  0
 19 53  1  0  0  0  0
 20 19  2  0  0  0  0
 21 20  1  0  0  0  0
 21 17  1  0  0  0  0
 22 20  1  0  0  0  0
 23 22  2  0  0  0  0
 24 22  1  0  0  0  0
 24 54  1  0  0  0  0
 25  1  1  0  0  0  0
 26 25  1  0  0  0  0
 27 26  1  0  0  0  0
 28 27  2  0  0  0  0
 29 28  1  0  0  0  0
 29 25  2  0  0  0  0
 29 55  1  0  0  0  0
 30 26  1  0  0  0  0
 31 30  2  0  0  0  0
 31 56  1  0  0  0  0
 32 31  1  0  0  0  0
 33 32  1  0  0  0  0
 34 32  2  0  0  0  0
 35 34  1  0  0  0  0
 36 34  1  0  0  0  0
 36 57  1  0  0  0  0
 37 36  2  0  0  0  0
 37 30  1  0  0  0  0
 37 58  1  0  0  0  0
 38 28  1  0  0  0  0
 39 38  2  0  0  0  0
 40 38  1  0  0  0  0
 40 59  1  0  0  0  0
M  END
$$$$
