@<TRIPOS>MOLECULE
3HW
 59 63 0 0 0
SMALL
GASTEIGER

@<TRIPOS>ATOM
      1 C          -1.6720   11.0200   -1.4030 C.ar    1  UNL1        0.0005
      2 C          -1.9890   10.3740   -0.2170 C.ar    1  UNL1       -0.0519
      3 C          -3.0490   10.8230    0.5540 C.ar    1  UNL1       -0.0517
      4 C          -3.7900   11.9170    0.1320 C.ar    1  UNL1        0.0032
      5 C          -3.4810   12.5580   -1.0530 C.ar    1  UNL1       -0.0517
      6 C          -2.4170   12.1160   -1.8150 C.ar    1  UNL1       -0.0519
      7 C          -4.9370   12.4110    0.9360 C.2     1  UNL1        0.0797
      8 S          -6.4100   12.5410    0.1710 S.2     1  UNL1       -0.0350
      9 N          -4.6680   13.0930    2.1650 N.am    1  UNL1       -0.3335
     10 C          -4.2660   14.4610    1.9930 C.3     1  UNL1        0.0348
     11 C          -2.8840   14.9270    2.3060 C.ar    1  UNL1       -0.0304
     12 C          -2.7380   15.8690    3.3100 C.ar    1  UNL1       -0.0564
     13 C          -1.4840   16.3530    3.6350 C.ar    1  UNL1       -0.0508
     14 C          -0.3690   15.8870    2.9590 C.ar    1  UNL1        0.0173
     15 C          -0.5070   14.9580    1.9370 C.ar    1  UNL1       -0.0508
     16 C          -1.7670   14.4720    1.6090 C.ar    1  UNL1       -0.0564
     17 C           0.9680   16.4300    3.2950 C.ar    1  UNL1        0.1360
     18 C           1.8170   17.1830    2.4750 C.ar    1  UNL1       -0.0150
     19 C           2.9930   17.4120    3.2610 C.ar    1  UNL1       -0.0087
     20 C           2.7400   16.7820    4.4830 C.ar    1  UNL1        0.2119
     21 O           1.5650   16.2240    4.4340 O.2     1  UNL1       -0.4483
     22 C           3.6100   16.6840    5.6780 C.2     1  UNL1        0.3725
     23 O           4.7820   16.2290    5.5980 O.2     1  UNL1       -0.2417
     24 O           3.1300   17.0630    6.7780 O.3     1  UNL1       -0.4750
     25 C          -0.5350   10.5280   -2.2230 C.ar    1  UNL1        0.0754
     26 N           0.7590   10.7040   -1.9740 N.ar    1  UNL1       -0.2313
     27 N           1.4980   10.1470   -2.9120 N.ar    1  UNL1       -0.1592
     28 C           0.7230    9.5950   -3.8300 C.ar    1  UNL1        0.1700
     29 C          -0.6290    9.8090   -3.4470 C.ar    1  UNL1       -0.0015
     30 C           1.2970   11.3680   -0.8320 C.ar    1  UNL1        0.0675
     31 C           1.5630   10.6710    0.3340 C.ar    1  UNL1       -0.0165
     32 C           2.0960   11.3450    1.4180 C.ar    1  UNL1        0.0613
     33 CL          2.4110   10.4740    2.8730 Cl      1  UNL1       -0.0820
     34 C           2.3620   12.7020    1.3420 C.ar    1  UNL1        0.0594
     35 CL          3.0180   13.5580    2.6870 Cl      1  UNL1       -0.0820
     36 C           2.1020   13.3930    0.1760 C.ar    1  UNL1       -0.0400
     37 C           1.5710   12.7240   -0.9120 C.ar    1  UNL1       -0.0348
     38 C           1.2170    8.8830   -5.0380 C.2     1  UNL1        0.3571
     39 O           2.4310    8.9930   -5.3560 O.2     1  UNL1       -0.2433
     40 O           0.4240    8.1970   -5.7310 O.3     1  UNL1       -0.4760
     41 H          -1.3990    9.5056    0.1112 H       1  UNL1        0.0624
     42 H          -3.3017   10.3144    1.4961 H       1  UNL1        0.0624
     43 H          -4.0804   13.4173   -1.3881 H       1  UNL1        0.0624
     44 H          -2.1596   12.6340   -2.7506 H       1  UNL1        0.0624
     45 H          -4.7547   12.6441    3.0880 H       1  UNL1        0.1469
     46 H          -4.4387   14.7011    0.9335 H       1  UNL1        0.0511
     47 H          -4.8611   14.9737    2.7631 H       1  UNL1        0.0511
     48 H          -3.6232   16.2340    3.8515 H       1  UNL1        0.0621
     49 H          -1.3725   17.1064    4.4287 H       1  UNL1        0.0625
     50 H           0.3792   14.6071    1.3878 H       1  UNL1        0.0625
     51 H          -1.8817   13.7320    0.8033 H       1  UNL1        0.0621
     52 H           1.6229   17.5253    1.4478 H       1  UNL1        0.0656
     53 H           3.8981   17.9636    2.9668 H       1  UNL1        0.0658
     54 H           3.6786   17.0140    7.6006 H       1  UNL1        0.2955
     55 H          -1.5396    9.4913   -3.9760 H       1  UNL1        0.0663
     56 H           1.3529    9.5931    0.3978 H       1  UNL1        0.0654
     57 H           2.3159   14.4701    0.1122 H       1  UNL1        0.0633
     58 H           1.3654   13.2705   -1.8443 H       1  UNL1        0.0639
     59 H           0.7527    7.7228   -6.5355 H       1  UNL1        0.2955
@<TRIPOS>BOND
     1     2     1   ar
     2     3     2   ar
     3     4     3   ar
     4     5     4   ar
     5     6     5   ar
     6     6     1   ar
     7     7     4    1
     8     8     7    2
     9     9     7    1
    10    10     9    1
    11    11    10    1
    12    12    11   ar
    13    13    12   ar
    14    14    13   ar
    15    15    14   ar
    16    16    15   ar
    17    16    11   ar
    18    17    14    1
    19    18    17   ar
    20    19    18   ar
    21    20    19   ar
    22    21    20   ar
    23    21    17   ar
    24    22    20    1
    25    23    22    2
    26    24    22    1
    27    25     1    1
    28    26    25   ar
    29    27    26   ar
    30    28    27   ar
    31    29    28   ar
    32    29    25   ar
    33    30    26    1
    34    31    30   ar
    35    32    31   ar
    36    33    32    1
    37    34    32   ar
    38    35    34    1
    39    36    34   ar
    40    37    36   ar
    41    37    30   ar
    42    38    28    1
    43    39    38    2
    44    40    38    1
    45     2    41    1
    46     3    42    1
    47     5    43    1
    48     6    44    1
    49     9    45    1
    50    10    46    1
    51    10    47    1
    52    12    48    1
    53    13    49    1
    54    15    50    1
    55    16    51    1
    56    18    52    1
    57    19    53    1
    58    24    54    1
    59    29    55    1
    60    31    56    1
    61    36    57    1
    62    37    58    1
    63    40    59    1
