@<TRIPOS>MOLECULE
6NP
 62 67 0 0 0
SMALL
GASTEIGER

@<TRIPOS>ATOM
      1 C           1.7950   19.0440   32.4220 C.ar    1  UNL1        0.1444
      2 N           2.0880   18.4150   31.2410 N.ar    1  UNL1       -0.1336
      3 C          -0.2780   18.1410   30.7380 C.ar    1  UNL1        0.1011
      4 N           1.0700   17.9960   30.4630 N.ar    1  UNL1       -0.1469
      5 C          -0.6260   18.8440   32.0510 C.ar    1  UNL1        0.0132
      6 C           0.4500   19.2620   32.8320 C.ar    1  UNL1       -0.0101
      7 N           2.8870   19.4600   33.2130 N.pl3   1  UNL1       -0.3111
      8 C           3.8010   18.4950   33.8680 C.3     1  UNL1        0.0293
      9 C           5.0110   18.3080   32.9300 C.3     1  UNL1        0.0273
     10 N           5.7050   19.6070   32.7860 N.3     1  UNL1       -0.3100
     11 C           4.8300   20.6740   32.2300 C.3     1  UNL1        0.0120
     12 C           3.4800   20.8070   32.9850 C.3     1  UNL1        0.0261
     13 C           5.9530   17.1670   33.3440 C.3     1  UNL1       -0.0108
     14 C           5.7950   15.9530   32.4470 C.ar    1  UNL1       -0.0458
     15 C           6.5430   14.7640   32.7000 C.ar    1  UNL1       -0.0585
     16 C           6.4060   13.6270   31.8670 C.ar    1  UNL1       -0.0615
     17 C           5.5180   13.6650   30.7700 C.ar    1  UNL1       -0.0617
     18 C           4.7660   14.8410   30.5080 C.ar    1  UNL1       -0.0615
     19 C           4.9040   15.9770   31.3420 C.ar    1  UNL1       -0.0585
     20 C          -2.0480   19.0940   32.5180 C.ar    1  UNL1       -0.0128
     21 C          -2.7040   18.1630   33.3520 C.ar    1  UNL1       -0.0358
     22 C          -4.0210   18.4230   33.7810 C.ar    1  UNL1        0.0281
     23 N          -4.7050   19.5490   33.4260 N.ar    1  UNL1       -0.2632
     24 C          -4.0780   20.4550   32.6180 C.ar    1  UNL1        0.0281
     25 C          -2.7650   20.2640   32.1490 C.ar    1  UNL1       -0.0358
     26 C          -1.2940   17.6100   29.7620 C.ar    1  UNL1        0.0033
     27 C          -1.8580   16.3290   29.9790 C.ar    1  UNL1       -0.0448
     28 C          -2.8470   15.8250   29.0710 C.ar    1  UNL1       -0.0173
     29 C          -3.2760   16.6180   27.9300 C.ar    1  UNL1       -0.0178
     30 C          -3.4270   14.5360   29.2900 C.ar    1  UNL1       -0.0540
     31 C          -2.6940   17.8970   27.7240 C.ar    1  UNL1       -0.0534
     32 C          -4.2690   16.1160   27.0340 C.ar    1  UNL1       -0.0540
     33 C          -1.7180   18.3770   28.6340 C.ar    1  UNL1       -0.0519
     34 C          -4.8350   14.8310   27.2740 C.ar    1  UNL1       -0.0612
     35 C          -4.4190   14.0460   28.3900 C.ar    1  UNL1       -0.0612
     36 H           0.2551   19.7720   33.7870 H       1  UNL1        0.0659
     37 H           4.1339   18.8901   34.8391 H       1  UNL1        0.0479
     38 H           3.2937   17.5358   34.0485 H       1  UNL1        0.0479
     39 H           4.6363   17.9851   31.9475 H       1  UNL1        0.0479
     40 H           6.0383   19.9058   33.7136 H       1  UNL1        0.1223
     41 H           5.3636   21.6338   32.2945 H       1  UNL1        0.0439
     42 H           4.5994   20.4011   31.1896 H       1  UNL1        0.0439
     43 H           3.6519   21.2978   33.9543 H       1  UNL1        0.0477
     44 H           2.7861   21.4083   32.3792 H       1  UNL1        0.0477
     45 H           6.9920   17.5228   33.2821 H       1  UNL1        0.0329
     46 H           5.6981   16.8687   34.3716 H       1  UNL1        0.0329
     47 H           7.2356   14.7304   33.5540 H       1  UNL1        0.0620
     48 H           6.9893   12.7176   32.0739 H       1  UNL1        0.0618
     49 H           5.4087   12.7850   30.1191 H       1  UNL1        0.0618
     50 H           4.0736   14.8695   29.6538 H       1  UNL1        0.0618
     51 H           4.3173   16.8836   31.1324 H       1  UNL1        0.0620
     52 H          -2.1911   17.2415   33.6647 H       1  UNL1        0.0639
     53 H          -4.5186   17.6870   34.4295 H       1  UNL1        0.0830
     54 H          -4.6189   21.3664   32.3235 H       1  UNL1        0.0830
     55 H          -2.2956   21.0174   31.4994 H       1  UNL1        0.0639
     56 H          -1.5389   15.7235   30.8401 H       1  UNL1        0.0630
     57 H          -3.1095   13.9256   30.1483 H       1  UNL1        0.0624
     58 H          -2.9984   18.5115   26.8639 H       1  UNL1        0.0624
     59 H          -4.5925   16.7143   26.1695 H       1  UNL1        0.0624
     60 H          -1.2743   19.3695   28.4662 H       1  UNL1        0.0624
     61 H          -5.6024   14.4392   26.5902 H       1  UNL1        0.0618
     62 H          -4.8666   13.0553   28.5577 H       1  UNL1        0.0618
@<TRIPOS>BOND
     1     2     1   ar
     2     4     3   ar
     3     4     2   ar
     4     5     3   ar
     5     6     5   ar
     6     6     1   ar
     7     7     1    1
     8     8     7    1
     9     9     8    1
    10    10     9    1
    11    11    10    1
    12    12    11    1
    13    12     7    1
    14    13     9    1
    15    14    13    1
    16    15    14   ar
    17    16    15   ar
    18    17    16   ar
    19    18    17   ar
    20    19    18   ar
    21    19    14   ar
    22    20     5    1
    23    21    20   ar
    24    22    21   ar
    25    23    22   ar
    26    24    23   ar
    27    25    24   ar
    28    25    20   ar
    29    26     3    1
    30    27    26   ar
    31    28    27   ar
    32    29    28   ar
    33    30    28   ar
    34    31    29   ar
    35    32    29   ar
    36    33    31   ar
    37    33    26   ar
    38    34    32   ar
    39    35    34   ar
    40    35    30   ar
    41     6    36    1
    42     8    37    1
    43     8    38    1
    44     9    39    1
    45    10    40    1
    46    11    41    1
    47    11    42    1
    48    12    43    1
    49    12    44    1
    50    13    45    1
    51    13    46    1
    52    15    47    1
    53    16    48    1
    54    17    49    1
    55    18    50    1
    56    19    51    1
    57    21    52    1
    58    22    53    1
    59    24    54    1
    60    25    55    1
    61    27    56    1
    62    30    57    1
    63    31    58    1
    64    32    59    1
    65    33    60    1
    66    34    61    1
    67    35    62    1
