6NP
 OpenBabel10022215373D

 62 67  0  0  0  0  0  0  0  0999 V2000
    1.7950   19.0440   32.4220 C   0  0  0  0  0  0  0  0  0  0  0  0
    2.0880   18.4150   31.2410 N   0  0  0  0  0  0  0  0  0  0  0  0
   -0.2780   18.1410   30.7380 C   0  0  0  0  0  0  0  0  0  0  0  0
    1.0700   17.9960   30.4630 N   0  0  0  0  0  0  0  0  0  0  0  0
   -0.6260   18.8440   32.0510 C   0  0  0  0  0  0  0  0  0  0  0  0
    0.4500   19.2620   32.8320 C   0  0  0  0  0  0  0  0  0  0  0  0
    2.8870   19.4600   33.2130 N   0  0  0  0  0  0  0  0  0  0  0  0
    3.8010   18.4950   33.8680 C   0  0  0  0  0  0  0  0  0  0  0  0
    5.0110   18.3080   32.9300 C   0  0  1  0  0  0  0  0  0  0  0  0
    5.7050   19.6070   32.7860 N   0  0  0  0  0  0  0  0  0  0  0  0
    4.8300   20.6740   32.2300 C   0  0  0  0  0  0  0  0  0  0  0  0
    3.4800   20.8070   32.9850 C   0  0  0  0  0  0  0  0  0  0  0  0
    5.9530   17.1670   33.3440 C   0  0  0  0  0  0  0  0  0  0  0  0
    5.7950   15.9530   32.4470 C   0  0  0  0  0  0  0  0  0  0  0  0
    6.5430   14.7640   32.7000 C   0  0  0  0  0  0  0  0  0  0  0  0
    6.4060   13.6270   31.8670 C   0  0  0  0  0  0  0  0  0  0  0  0
    5.5180   13.6650   30.7700 C   0  0  0  0  0  0  0  0  0  0  0  0
    4.7660   14.8410   30.5080 C   0  0  0  0  0  0  0  0  0  0  0  0
    4.9040   15.9770   31.3420 C   0  0  0  0  0  0  0  0  0  0  0  0
   -2.0480   19.0940   32.5180 C   0  0  0  0  0  0  0  0  0  0  0  0
   -2.7040   18.1630   33.3520 C   0  0  0  0  0  0  0  0  0  0  0  0
   -4.0210   18.4230   33.7810 C   0  0  0  0  0  0  0  0  0  0  0  0
   -4.7050   19.5490   33.4260 N   0  0  0  0  0  0  0  0  0  0  0  0
   -4.0780   20.4550   32.6180 C   0  0  0  0  0  0  0  0  0  0  0  0
   -2.7650   20.2640   32.1490 C   0  0  0  0  0  0  0  0  0  0  0  0
   -1.2940   17.6100   29.7620 C   0  0  0  0  0  0  0  0  0  0  0  0
   -1.8580   16.3290   29.9790 C   0  0  0  0  0  0  0  0  0  0  0  0
   -2.8470   15.8250   29.0710 C   0  0  0  0  0  0  0  0  0  0  0  0
   -3.2760   16.6180   27.9300 C   0  0  0  0  0  0  0  0  0  0  0  0
   -3.4270   14.5360   29.2900 C   0  0  0  0  0  0  0  0  0  0  0  0
   -2.6940   17.8970   27.7240 C   0  0  0  0  0  0  0  0  0  0  0  0
   -4.2690   16.1160   27.0340 C   0  0  0  0  0  0  0  0  0  0  0  0
   -1.7180   18.3770   28.6340 C   0  0  0  0  0  0  0  0  0  0  0  0
   -4.8350   14.8310   27.2740 C   0  0  0  0  0  0  0  0  0  0  0  0
   -4.4190   14.0460   28.3900 C   0  0  0  0  0  0  0  0  0  0  0  0
    0.2551   19.7720   33.7870 H   0  0  0  0  0  0  0  0  0  0  0  0
    4.1339   18.8901   34.8391 H   0  0  0  0  0  0  0  0  0  0  0  0
    3.2937   17.5358   34.0485 H   0  0  0  0  0  0  0  0  0  0  0  0
    4.6363   17.9851   31.9475 H   0  0  0  0  0  0  0  0  0  0  0  0
    6.0383   19.9058   33.7136 H   0  0  0  0  0  0  0  0  0  0  0  0
    5.3636   21.6338   32.2945 H   0  0  0  0  0  0  0  0  0  0  0  0
    4.5994   20.4011   31.1896 H   0  0  0  0  0  0  0  0  0  0  0  0
    3.6519   21.2978   33.9543 H   0  0  0  0  0  0  0  0  0  0  0  0
    2.7861   21.4083   32.3792 H   0  0  0  0  0  0  0  0  0  0  0  0
    6.9920   17.5228   33.2821 H   0  0  0  0  0  0  0  0  0  0  0  0
    5.6981   16.8687   34.3716 H   0  0  0  0  0  0  0  0  0  0  0  0
    7.2356   14.7304   33.5540 H   0  0  0  0  0  0  0  0  0  0  0  0
    6.9893   12.7176   32.0739 H   0  0  0  0  0  0  0  0  0  0  0  0
    5.4087   12.7850   30.1191 H   0  0  0  0  0  0  0  0  0  0  0  0
    4.0736   14.8695   29.6538 H   0  0  0  0  0  0  0  0  0  0  0  0
    4.3173   16.8836   31.1324 H   0  0  0  0  0  0  0  0  0  0  0  0
   -2.1911   17.2415   33.6647 H   0  0  0  0  0  0  0  0  0  0  0  0
   -4.5186   17.6870   34.4295 H   0  0  0  0  0  0  0  0  0  0  0  0
   -4.6189   21.3664   32.3235 H   0  0  0  0  0  0  0  0  0  0  0  0
   -2.2956   21.0174   31.4994 H   0  0  0  0  0  0  0  0  0  0  0  0
   -1.5389   15.7235   30.8401 H   0  0  0  0  0  0  0  0  0  0  0  0
   -3.1095   13.9256   30.1483 H   0  0  0  0  0  0  0  0  0  0  0  0
   -2.9984   18.5115   26.8639 H   0  0  0  0  0  0  0  0  0  0  0  0
   -4.5925   16.7143   26.1695 H   0  0  0  0  0  0  0  0  0  0  0  0
   -1.2743   19.3695   28.4662 H   0  0  0  0  0  0  0  0  0  0  0  0
   -5.6024   14.4392   26.5902 H   0  0  0  0  0  0  0  0  0  0  0  0
   -4.8666   13.0553   28.5577 H   0  0  0  0  0  0  0  0  0  0  0  0
  2  1  2  0  0  0  0
  4  3  2  0  0  0  0
  4  2  1  0  0  0  0
  5  3  1  0  0  0  0
  6  5  2  0  0  0  0
  6  1  1  0  0  0  0
  6 36  1  0  0  0  0
  7  1  1  0  0  0  0
  8  7  1  0  0  0  0
  8 37  1  0  0  0  0
  8 38  1  0  0  0  0
  9  8  1  0  0  0  0
  9 39  1  6  0  0  0
 10  9  1  0  0  0  0
 10 40  1  0  0  0  0
 11 10  1  0  0  0  0
 11 41  1  0  0  0  0
 11 42  1  0  0  0  0
 12 11  1  0  0  0  0
 12  7  1  0  0  0  0
 12 43  1  0  0  0  0
 12 44  1  0  0  0  0
 13  9  1  0  0  0  0
 13 45  1  0  0  0  0
 13 46  1  0  0  0  0
 14 13  1  0  0  0  0
 15 14  2  0  0  0  0
 15 47  1  0  0  0  0
 16 15  1  0  0  0  0
 16 48  1  0  0  0  0
 17 16  2  0  0  0  0
 17 49  1  0  0  0  0
 18 17  1  0  0  0  0
 18 50  1  0  0  0  0
 19 18  2  0  0  0  0
 19 14  1  0  0  0  0
 19 51  1  0  0  0  0
 20  5  1  0  0  0  0
 21 20  2  0  0  0  0
 21 52  1  0  0  0  0
 22 21  1  0  0  0  0
 22 53  1  0  0  0  0
 23 22  2  0  0  0  0
 24 23  1  0  0  0  0
 24 54  1  0  0  0  0
 25 24  2  0  0  0  0
 25 20  1  0  0  0  0
 25 55  1  0  0  0  0
 26  3  1  0  0  0  0
 27 26  2  0  0  0  0
 27 56  1  0  0  0  0
 28 27  1  0  0  0  0
 29 28  2  0  0  0  0
 30 28  1  0  0  0  0
 30 57  1  0  0  0  0
 31 29  1  0  0  0  0
 31 58  1  0  0  0  0
 32 29  1  0  0  0  0
 32 59  1  0  0  0  0
 33 31  2  0  0  0  0
 33 26  1  0  0  0  0
 33 60  1  0  0  0  0
 34 32  2  0  0  0  0
 34 61  1  0  0  0  0
 35 34  1  0  0  0  0
 35 30  2  0  0  0  0
 35 62  1  0  0  0  0
M  END
$$$$
