U73
  -OEChem-02242319253D

 33 34  0     0  0  0  0  0  0999 V2000
    0.1600   -0.0110   -0.8400 O   0  0  0  0  0  0  0  0  0  0  0  0
   -1.0430   -0.0080   -1.0180 C   0  0  0  0  0  0  0  0  0  0  0  0
   -1.8670   -0.0020    0.0200 N   0  0  0  0  0  0  0  0  0  0  0  0
   -1.3760   -0.0000    1.2610 C   0  0  0  0  0  0  0  0  0  0  0  0
   -2.0480    0.0050    2.4470 N   0  0  0  0  0  0  0  0  0  0  0  0
   -1.3380    0.0060    3.6050 C   0  0  0  0  0  0  0  0  0  0  0  0
    0.2790    0.0030    1.7780 S   0  0  0  0  0  0  0  0  0  0  0  0
   -0.0030    0.0010    3.5400 C   0  0  0  0  0  0  0  0  0  0  0  0
    1.0020    0.0010    4.6620 C   0  0  0  0  0  0  0  0  0  0  0  0
    1.8750   -1.2510    4.5650 C   0  0  0  0  0  0  0  0  0  0  0  0
    1.8840    1.2470    4.5580 C   0  0  0  0  0  0  0  0  0  0  0  0
   -1.5970   -0.0100   -2.4200 C   0  0  0  0  0  0  0  0  0  0  0  0
   -0.4600   -0.0160   -3.4090 C   0  0  0  0  0  0  0  0  0  0  0  0
    0.0650   -1.2150   -3.8670 C   0  0  0  0  0  0  0  0  0  0  0  0
    1.1100   -1.1730   -4.7770 C   0  0  0  0  0  0  0  0  0  0  0  0
    1.5900    0.0530   -5.1950 C   0  0  0  0  0  0  0  0  0  0  0  0
    1.0650    1.1740   -4.7380 N   0  0  0  0  0  0  0  0  0  0  0  0
    0.0670    1.1710   -3.8770 C   0  0  0  0  0  0  0  0  0  0  0  0
   -3.0180    0.0080    2.4640 H   0  0  0  0  0  0  0  0  0  0  0  0
   -1.8430    0.0100    4.5600 H   0  0  0  0  0  0  0  0  0  0  0  0
    0.4790    0.0050    5.6190 H   0  0  0  0  0  0  0  0  0  0  0  0
    2.6020   -1.2510    5.3770 H   0  0  0  0  0  0  0  0  0  0  0  0
    1.2470   -2.1390    4.6390 H   0  0  0  0  0  0  0  0  0  0  0  0
    2.3980   -1.2550    3.6080 H   0  0  0  0  0  0  0  0  0  0  0  0
    2.4070    1.2420    3.6010 H   0  0  0  0  0  0  0  0  0  0  0  0
    1.2620    2.1390    4.6270 H   0  0  0  0  0  0  0  0  0  0  0  0
    2.6110    1.2460    5.3700 H   0  0  0  0  0  0  0  0  0  0  0  0
   -2.2110   -0.8980   -2.5660 H   0  0  0  0  0  0  0  0  0  0  0  0
   -2.2050    0.8810   -2.5710 H   0  0  0  0  0  0  0  0  0  0  0  0
   -0.3300   -2.1590   -3.5230 H   0  0  0  0  0  0  0  0  0  0  0  0
    1.5440   -2.0870   -5.1540 H   0  0  0  0  0  0  0  0  0  0  0  0
    2.4040    0.0950   -5.9030 H   0  0  0  0  0  0  0  0  0  0  0  0
   -0.3360    2.1090   -3.5250 H   0  0  0  0  0  0  0  0  0  0  0  0
  1  2  2  0  0  0  0
  2  3  1  0  0  0  0
  2 12  1  0  0  0  0
  3  4  2  0  0  0  0
  4  5  1  0  0  0  0
  4  7  1  0  0  0  0
  5  6  1  0  0  0  0
  5 19  1  0  0  0  0
  6  8  2  0  0  0  0
  6 20  1  0  0  0  0
  7  8  1  0  0  0  0
  8  9  1  0  0  0  0
  9 10  1  0  0  0  0
  9 11  1  0  0  0  0
  9 21  1  0  0  0  0
 10 22  1  0  0  0  0
 10 23  1  0  0  0  0
 10 24  1  0  0  0  0
 11 25  1  0  0  0  0
 11 26  1  0  0  0  0
 11 27  1  0  0  0  0
 12 13  1  0  0  0  0
 12 28  1  0  0  0  0
 12 29  1  0  0  0  0
 13 14  2  0  0  0  0
 13 18  1  0  0  0  0
 14 15  1  0  0  0  0
 14 30  1  0  0  0  0
 15 16  2  0  0  0  0
 15 31  1  0  0  0  0
 16 17  1  0  0  0  0
 16 32  1  0  0  0  0
 17 18  2  0  0  0  0
 18 33  1  0  0  0  0
M  END
> <OPENEYE_ISO_SMILES>
CC(C)c1c[nH]/c(=N/C(=O)Cc2cccnc2)/s1

> <OPENEYE_INCHI>
InChI=1S/C13H15N3OS/c1-9(2)11-8-15-13(18-11)16-12(17)6-10-4-3-5-14-7-10/h3-5,7-9H,6H2,1-2H3,(H,15,16,17)

> <OPENEYE_INCHIKEY>
WQZOOPQQADNJEG-UHFFFAOYSA-N

> <FORMULA>
C13H15N3OS

$$$$
