U73
  Mrv15b2303062313592D          

 18 19  0  0  0  0            999 V2000
    0.5545    1.7916    0.0000 O   0  0  0  0  0  0  0  0  0  0  0  0
    0.5545    0.9666    0.0000 C   0  0  0  0  0  0  0  0  0  0  0  0
    1.2690    0.5541    0.0000 N   0  0  0  0  0  0  0  0  0  0  0  0
    1.2690   -0.2709    0.0000 C   0  0  0  0  0  0  0  0  0  0  0  0
    1.9365   -0.7558    0.0000 N   0  0  0  0  0  0  0  0  0  0  0  0
    1.6815   -1.5404    0.0000 C   0  0  0  0  0  0  0  0  0  0  0  0
    0.6016   -0.7558    0.0000 S   0  0  0  0  0  0  0  0  0  0  0  0
    0.8565   -1.5404    0.0000 C   0  0  0  0  0  0  0  0  0  0  0  0
    0.3716   -2.2079    0.0000 C   0  0  0  0  0  0  0  0  0  0  0  0
    0.7071   -2.9616    0.0000 C   0  0  0  0  0  0  0  0  0  0  0  0
   -0.4489   -2.1216    0.0000 C   0  0  0  0  0  0  0  0  0  0  0  0
   -0.1599    0.5541    0.0000 C   0  0  0  0  0  0  0  0  0  0  0  0
   -0.8744    0.9666    0.0000 C   0  0  0  0  0  0  0  0  0  0  0  0
   -1.5889    0.5541    0.0000 C   0  0  0  0  0  0  0  0  0  0  0  0
   -2.3033    0.9666    0.0000 C   0  0  0  0  0  0  0  0  0  0  0  0
   -2.3033    1.7916    0.0000 C   0  0  0  0  0  0  0  0  0  0  0  0
   -1.5889    2.2041    0.0000 N   0  0  0  0  0  0  0  0  0  0  0  0
   -0.8744    1.7916    0.0000 C   0  0  0  0  0  0  0  0  0  0  0  0
  1  2  2  0  0  0  0
  2  3  1  0  0  0  0
  2 12  1  0  0  0  0
  3  4  2  0  0  0  0
  4  5  4  0  0  0  0
  4  7  4  0  0  0  0
  5  6  4  0  0  0  0
  6  8  4  0  0  0  0
  7  8  4  0  0  0  0
  8  9  1  0  0  0  0
  9 10  1  0  0  0  0
  9 11  1  0  0  0  0
 12 13  1  0  0  0  0
 13 14  4  0  0  0  0
 13 18  4  0  0  0  0
 14 15  4  0  0  0  0
 15 16  4  0  0  0  0
 16 17  4  0  0  0  0
 17 18  4  0  0  0  0
M  STY  1   1 DAT
M  SAL   1  1   5
M  SDT   1 MRV_IMPLICIT_H                                        
M  SDD   1     0.0000    0.0000    DR    ALL  0       0  
M  SED   1 IMPL_H1
M  END
