@<TRIPOS>MOLECULE
U73
 33 34 0 0 0
SMALL
GASTEIGER

@<TRIPOS>ATOM
      1 O           0.1600   -0.0110   -0.8400 O.2     1  LIG1       -0.2733
      2 C          -1.0430   -0.0080   -1.0180 C.2     1  LIG1        0.2427
      3 N          -1.8670   -0.0020    0.0200 N.am    1  LIG1       -0.1563
      4 C          -1.3760   -0.0000    1.2610 C.ar    1  LIG1        0.1631
      5 N          -2.0480    0.0050    2.4470 N.ar    1  LIG1       -0.3418
      6 C          -1.3380    0.0060    3.6050 C.ar    1  LIG1        0.0138
      7 S           0.2790    0.0030    1.7780 S.2     1  LIG1       -0.0570
      8 C          -0.0030    0.0010    3.5400 C.ar    1  LIG1        0.0114
      9 C           1.0020    0.0010    4.6620 C.3     1  LIG1       -0.0138
     10 C           1.8750   -1.2510    4.5650 C.3     1  LIG1       -0.0581
     11 C           1.8840    1.2470    4.5580 C.3     1  LIG1       -0.0581
     12 C          -1.5970   -0.0100   -2.4200 C.3     1  LIG1        0.0526
     13 C          -0.4600   -0.0160   -3.4090 C.ar    1  LIG1       -0.0205
     14 C           0.0650   -1.2150   -3.8670 C.ar    1  LIG1       -0.0552
     15 C           1.1100   -1.1730   -4.7770 C.ar    1  LIG1       -0.0433
     16 C           1.5900    0.0530   -5.1950 C.ar    1  LIG1        0.0276
     17 N           1.0650    1.1740   -4.7380 N.ar    1  LIG1       -0.2630
     18 C           0.0670    1.1710   -3.8770 C.ar    1  LIG1        0.0312
     19 H          -3.0180    0.0080    2.4640 H       1  LIG1        0.1671
     20 H          -1.8430    0.0100    4.5600 H       1  LIG1        0.0815
     21 H           0.4790    0.0050    5.6190 H       1  LIG1        0.0349
     22 H           2.6020   -1.2510    5.3770 H       1  LIG1        0.0236
     23 H           1.2470   -2.1390    4.6390 H       1  LIG1        0.0236
     24 H           2.3980   -1.2550    3.6080 H       1  LIG1        0.0236
     25 H           2.4070    1.2420    3.6010 H       1  LIG1        0.0236
     26 H           1.2620    2.1390    4.6270 H       1  LIG1        0.0236
     27 H           2.6110    1.2460    5.3700 H       1  LIG1        0.0236
     28 H          -2.2110   -0.8980   -2.5660 H       1  LIG1        0.0408
     29 H          -2.2050    0.8810   -2.5710 H       1  LIG1        0.0408
     30 H          -0.3300   -2.1590   -3.5230 H       1  LIG1        0.0621
     31 H           1.5440   -2.0870   -5.1540 H       1  LIG1        0.0633
     32 H           2.4040    0.0950   -5.9030 H       1  LIG1        0.0829
     33 H          -0.3360    2.1090   -3.5250 H       1  LIG1        0.0832
@<TRIPOS>BOND
     1     1     2    2
     2     2     3    1
     3     2    12    1
     4     3     4    2
     5     4     5   ar
     6     4     7   ar
     7     5     6   ar
     8     5    19    1
     9     6     8   ar
    10     6    20    1
    11     7     8   ar
    12     8     9    1
    13     9    10    1
    14     9    11    1
    15     9    21    1
    16    10    22    1
    17    10    23    1
    18    10    24    1
    19    11    25    1
    20    11    26    1
    21    11    27    1
    22    12    13    1
    23    12    28    1
    24    12    29    1
    25    13    14   ar
    26    13    18   ar
    27    14    15   ar
    28    14    30    1
    29    15    16   ar
    30    15    31    1
    31    16    17   ar
    32    16    32    1
    33    17    18   ar
    34    18    33    1
