CT7
  -OEChem-02242319233D

 32 34  0     0  0  0  0  0  0999 V2000
   -0.1810   -1.9950    4.4400 O   0  0  0  0  0  0  0  0  0  0  0  0
   -0.1520   -0.5860    4.6270 S   0  0  0  0  0  0  0  0  0  0  0  0
   -1.1580    0.0980    5.3600 O   0  0  0  0  0  0  0  0  0  0  0  0
   -0.3720    0.0290    2.9910 C   0  0  0  0  0  0  0  0  0  0  0  0
   -0.9350    1.2770    2.7940 C   0  0  0  0  0  0  0  0  0  0  0  0
    0.0120   -0.7370    1.9070 C   0  0  0  0  0  0  0  0  0  0  0  0
   -0.1590   -0.2570    0.6240 C   0  0  0  0  0  0  0  0  0  0  0  0
   -1.1040    1.7650    1.5140 C   0  0  0  0  0  0  0  0  0  0  0  0
   -0.7190    0.9970    0.4220 C   0  0  0  0  0  0  0  0  0  0  0  0
   -0.8950    1.4850   -0.8740 N   0  0  0  0  0  0  0  0  0  0  0  0
   -0.3820    0.7890   -1.9490 C   0  0  0  0  0  0  0  0  0  0  0  0
    0.9590    0.5200   -2.0280 N   0  0  0  0  0  0  0  0  0  0  0  0
    1.4500   -0.1760   -3.1010 C   0  0  0  0  0  0  0  0  0  0  0  0
    0.6310   -0.5900   -4.0790 N   0  0  0  0  0  0  0  0  0  0  0  0
    3.1330    0.3230   -1.7090 C   0  0  0  0  0  0  0  0  0  0  0  0
    2.0330    0.8090   -1.1810 N   0  0  0  0  0  0  0  0  0  0  0  0
   -1.2040    0.3600   -2.9550 C   0  0  0  0  0  0  0  0  0  0  0  0
   -0.6600   -0.3420   -4.0320 C   0  0  0  0  0  0  0  0  0  0  0  0
   -1.6920   -0.8910   -5.3150 Cl  0  0  0  0  0  0  0  0  0  0  0  0
    2.8190   -0.3010   -2.9080 C   0  0  0  0  0  0  0  0  0  0  0  0
    1.5080   -0.0050    5.0680 C   0  0  0  0  0  0  0  0  0  0  0  0
   -1.2340    1.8740    3.6430 H   0  0  0  0  0  0  0  0  0  0  0  0
    0.4480   -1.7130    2.0650 H   0  0  0  0  0  0  0  0  0  0  0  0
    0.1410   -0.8570   -0.2220 H   0  0  0  0  0  0  0  0  0  0  0  0
   -1.5400    2.7410    1.3600 H   0  0  0  0  0  0  0  0  0  0  0  0
   -1.3770    2.3140   -1.0190 H   0  0  0  0  0  0  0  0  0  0  0  0
    4.1210    0.3960   -1.2790 H   0  0  0  0  0  0  0  0  0  0  0  0
   -2.2640    0.5630   -2.9160 H   0  0  0  0  0  0  0  0  0  0  0  0
    3.5140   -0.7960   -3.5700 H   0  0  0  0  0  0  0  0  0  0  0  0
    1.7530   -0.3340    6.0780 H   0  0  0  0  0  0  0  0  0  0  0  0
    2.2350   -0.4140    4.3660 H   0  0  0  0  0  0  0  0  0  0  0  0
    1.5350    1.0830    5.0250 H   0  0  0  0  0  0  0  0  0  0  0  0
  1  2  2  0  0  0  0
  2  3  2  0  0  0  0
  2  4  1  0  0  0  0
  2 21  1  0  0  0  0
  4  5  2  0  0  0  0
  4  6  1  0  0  0  0
  5  8  1  0  0  0  0
  5 22  1  0  0  0  0
  6  7  2  0  0  0  0
  6 23  1  0  0  0  0
  7  9  1  0  0  0  0
  7 24  1  0  0  0  0
  8  9  2  0  0  0  0
  8 25  1  0  0  0  0
  9 10  1  0  0  0  0
 10 11  1  0  0  0  0
 10 26  1  0  0  0  0
 11 12  1  0  0  0  0
 11 17  2  0  0  0  0
 12 13  1  0  0  0  0
 12 16  1  0  0  0  0
 13 14  1  0  0  0  0
 13 20  2  0  0  0  0
 14 18  2  0  0  0  0
 15 16  2  0  0  0  0
 15 20  1  0  0  0  0
 15 27  1  0  0  0  0
 17 18  1  0  0  0  0
 17 28  1  0  0  0  0
 18 19  1  0  0  0  0
 20 29  1  0  0  0  0
 21 30  1  0  0  0  0
 21 31  1  0  0  0  0
 21 32  1  0  0  0  0
M  END
> <OPENEYE_ISO_SMILES>
CS(=O)(=O)c1ccc(cc1)Nc2cc(nc3n2ncc3)Cl

> <OPENEYE_INCHI>
InChI=1S/C13H11ClN4O2S/c1-21(19,20)10-4-2-9(3-5-10)16-13-8-11(14)17-12-6-7-15-18(12)13/h2-8,16H,1H3

> <OPENEYE_INCHIKEY>
LVNXHNRYPADEAD-UHFFFAOYSA-N

> <FORMULA>
C13H11ClN4O2S

$$$$
