CT7
  Mrv15b2303062314042D          

 21 23  0  0  0  0            999 V2000
    2.8297   -2.2522    0.0000 O   0  0  0  0  0  0  0  0  0  0  0  0
    2.1152   -1.8397    0.0000 S   0  0  0  0  0  0  0  0  0  0  0  0
    2.5277   -1.1253    0.0000 O   0  0  0  0  0  0  0  0  0  0  0  0
    1.4008   -1.4272    0.0000 C   0  0  0  0  0  0  0  0  0  0  0  0
    0.6863   -1.8397    0.0000 C   0  0  0  0  0  0  0  0  0  0  0  0
    1.4008   -0.6022    0.0000 C   0  0  0  0  0  0  0  0  0  0  0  0
    0.6863   -0.1897    0.0000 C   0  0  0  0  0  0  0  0  0  0  0  0
   -0.0282   -1.4272    0.0000 C   0  0  0  0  0  0  0  0  0  0  0  0
   -0.0282   -0.6022    0.0000 C   0  0  0  0  0  0  0  0  0  0  0  0
   -0.7427   -0.1897    0.0000 N   0  0  0  0  0  0  0  0  0  0  0  0
   -0.7427    0.6353    0.0000 C   0  0  0  0  0  0  0  0  0  0  0  0
   -1.4571    1.0478    0.0000 N   0  0  0  0  0  0  0  0  0  0  0  0
   -1.4571    1.8728    0.0000 C   0  0  0  0  0  0  0  0  0  0  0  0
   -0.7427    2.2853    0.0000 N   0  0  0  0  0  0  0  0  0  0  0  0
   -2.7267    1.4603    0.0000 C   0  0  0  0  0  0  0  0  0  0  0  0
   -2.2417    0.7928    0.0000 N   0  0  0  0  0  0  0  0  0  0  0  0
   -0.0282    1.0478    0.0000 C   0  0  0  0  0  0  0  0  0  0  0  0
   -0.0282    1.8728    0.0000 C   0  0  0  0  0  0  0  0  0  0  0  0
    0.6863    2.2853    0.0000 Cl  0  0  0  0  0  0  0  0  0  0  0  0
   -2.2417    2.1277    0.0000 C   0  0  0  0  0  0  0  0  0  0  0  0
    1.7027   -2.5542    0.0000 C   0  0  0  0  0  0  0  0  0  0  0  0
  1  2  2  0  0  0  0
  2  3  2  0  0  0  0
  2  4  1  0  0  0  0
  2 21  1  0  0  0  0
  4  5  4  0  0  0  0
  4  6  4  0  0  0  0
  5  8  4  0  0  0  0
  6  7  4  0  0  0  0
  7  9  4  0  0  0  0
  8  9  4  0  0  0  0
  9 10  1  0  0  0  0
 10 11  1  0  0  0  0
 11 12  4  0  0  0  0
 11 17  4  0  0  0  0
 12 13  4  0  0  0  0
 12 16  4  0  0  0  0
 13 14  4  0  0  0  0
 13 20  4  0  0  0  0
 14 18  4  0  0  0  0
 15 16  4  0  0  0  0
 15 20  4  0  0  0  0
 17 18  4  0  0  0  0
 18 19  1  0  0  0  0
M  END
