@<TRIPOS>MOLECULE
CT7
 32 34 0 0 0
SMALL
GASTEIGER

@<TRIPOS>ATOM
      1 O          -0.1810   -1.9950    4.4400 O.2     1  LIG1       -0.1696
      2 S          -0.1520   -0.5860    4.6270 S.O2    1  LIG1       -0.0059
      3 O          -1.1580    0.0980    5.3600 O.2     1  LIG1       -0.1696
      4 C          -0.3720    0.0290    2.9910 C.ar    1  LIG1        0.0880
      5 C          -0.9350    1.2770    2.7940 C.ar    1  LIG1       -0.0351
      6 C           0.0120   -0.7370    1.9070 C.ar    1  LIG1       -0.0351
      7 C          -0.1590   -0.2570    0.6240 C.ar    1  LIG1       -0.0387
      8 C          -1.1040    1.7650    1.5140 C.ar    1  LIG1       -0.0387
      9 C          -0.7190    0.9970    0.4220 C.ar    1  LIG1        0.0325
     10 N          -0.8950    1.4850   -0.8740 N.pl3   1  LIG1       -0.2993
     11 C          -0.3820    0.7890   -1.9490 C.ar    1  LIG1        0.1295
     12 N           0.9590    0.5200   -2.0280 N.ar    1  LIG1       -0.2003
     13 C           1.4500   -0.1760   -3.1010 C.ar    1  LIG1        0.1591
     14 N           0.6310   -0.5900   -4.0790 N.ar    1  LIG1       -0.2162
     15 C           3.1330    0.3230   -1.7090 C.ar    1  LIG1        0.0520
     16 N           2.0330    0.8090   -1.1810 N.ar    1  LIG1       -0.1717
     17 C          -1.2040    0.3600   -2.9550 C.ar    1  LIG1        0.0154
     18 C          -0.6600   -0.3420   -4.0320 C.ar    1  LIG1        0.1349
     19 CL         -1.6920   -0.8910   -5.3150 Cl      1  LIG1       -0.0618
     20 C           2.8190   -0.3010   -2.9080 C.ar    1  LIG1        0.0024
     21 C           1.5080   -0.0050    5.0680 C.3     1  LIG1        0.0596
     22 H          -1.2340    1.8740    3.6430 H       1  LIG1        0.0637
     23 H           0.4480   -1.7130    2.0650 H       1  LIG1        0.0637
     24 H           0.1410   -0.8570   -0.2220 H       1  LIG1        0.0637
     25 H          -1.5400    2.7410    1.3600 H       1  LIG1        0.0637
     26 H          -1.3770    2.3140   -1.0190 H       1  LIG1        0.1536
     27 H           4.1210    0.3960   -1.2790 H       1  LIG1        0.0848
     28 H          -2.2640    0.5630   -2.9160 H       1  LIG1        0.0682
     29 H           3.5140   -0.7960   -3.5700 H       1  LIG1        0.0670
     30 H           1.7530   -0.3340    6.0780 H       1  LIG1        0.0468
     31 H           2.2350   -0.4140    4.3660 H       1  LIG1        0.0468
     32 H           1.5350    1.0830    5.0250 H       1  LIG1        0.0468
@<TRIPOS>BOND
     1     1     2    2
     2     2     3    2
     3     2     4    1
     4     2    21    1
     5     4     5   ar
     6     4     6   ar
     7     5     8   ar
     8     5    22    1
     9     6     7   ar
    10     6    23    1
    11     7     9   ar
    12     7    24    1
    13     8     9   ar
    14     8    25    1
    15     9    10    1
    16    10    11    1
    17    10    26    1
    18    11    12   ar
    19    11    17   ar
    20    12    13   ar
    21    12    16   ar
    22    13    14   ar
    23    13    20   ar
    24    14    18   ar
    25    15    16   ar
    26    15    20   ar
    27    15    27    1
    28    17    18   ar
    29    17    28    1
    30    18    19    1
    31    20    29    1
    32    21    30    1
    33    21    31    1
    34    21    32    1
