@<TRIPOS>MOLECULE
XMA
 67 72 0 0 0
SMALL
GASTEIGER

@<TRIPOS>ATOM
      1 C           8.5320    7.1610   19.2140 C.2     1  UNL1        0.2336
      2 O           9.4560    6.3910   18.9620 O.2     1  UNL1       -0.2741
      3 C           8.2780    8.3740   18.2500 C.3     1  UNL1        0.0972
      4 N           7.1590    9.2980   18.5830 N.3     1  UNL1       -0.1633
      5 C           6.5020    7.9730   20.6380 C.3     1  UNL1        0.1768
      6 C           6.0190    8.6950   19.3050 C.3     1  UNL1        0.0694
      7 N           7.6400    7.0340   20.3370 N.am    1  UNL1       -0.2664
      8 C           7.3600    5.7640   21.0360 C.3     1  UNL1        0.0467
      9 N           5.0060    2.8000   21.2120 N.pl3   1  UNL1       -0.3296
     10 C           5.4000    3.4500   19.8610 C.3     1  UNL1        0.0148
     11 C           5.4510    3.5260   22.5110 C.3     1  UNL1        0.0148
     12 C           5.7970    5.7410   21.1180 C.3     1  UNL1        0.0908
     13 O           5.4400    7.1550   21.1220 O.3     1  UNL1       -0.3442
     14 C           5.1280    4.9860   19.8840 C.3     1  UNL1       -0.0063
     15 C           5.2100    5.0730   22.4240 C.3     1  UNL1       -0.0063
     16 S           6.6830   10.6520   17.7000 S.O2    1  UNL1        0.0614
     17 O           5.2740   10.3260   17.1240 O.2     1  UNL1       -0.1528
     18 O           7.6990   10.9500   16.5820 O.2     1  UNL1       -0.1528
     19 C           6.5250   12.0050   18.7750 C.ar    1  UNL1        0.1061
     20 C           5.2300   12.2480   19.3880 C.ar    1  UNL1       -0.0276
     21 C           5.0340   13.3030   20.3700 C.ar    1  UNL1       -0.0159
     22 C           6.2620   14.1970   20.7770 C.ar    1  UNL1       -0.0164
     23 C           3.7150   13.5560   20.9870 C.ar    1  UNL1       -0.0526
     24 C           7.5730   13.9320   20.1450 C.ar    1  UNL1       -0.0521
     25 C           6.0450   15.2490   21.7540 C.ar    1  UNL1       -0.0357
     26 C           7.7000   12.8680   19.1710 C.ar    1  UNL1       -0.0348
     27 C           4.7230   15.4600   22.3320 C.ar    1  UNL1        0.0416
     28 CL          4.4690   16.7340   23.4970 Cl      1  UNL1       -0.0835
     29 C           3.5770   14.6130   21.9420 C.ar    1  UNL1       -0.0428
     30 C           6.7700    9.1180   21.7000 C.3     1  UNL1        0.0946
     31 O           6.8500    8.6620   23.0790 O.3     1  UNL1       -0.3784
     32 C           8.0980    8.5800   23.6300 C.3     1  UNL1        0.0366
     33 C           4.2280    1.5170   21.2580 C.ar    1  UNL1        0.0326
     34 C           3.6270    0.9250   20.0400 C.ar    1  UNL1       -0.0225
     35 C           2.8930   -0.2960   20.1460 C.ar    1  UNL1        0.0293
     36 N           2.7150   -0.9650   21.3470 N.ar    1  UNL1       -0.2631
     37 C           3.2640   -0.4440   22.5070 C.ar    1  UNL1        0.0293
     38 C           4.0180    0.7740   22.5250 C.ar    1  UNL1       -0.0225
     39 H           9.2011    8.9716   18.2232 H       1  UNL1        0.0539
     40 H           7.9850    7.9142   17.2946 H       1  UNL1        0.0539
     41 H           5.5312    7.9558   18.6526 H       1  UNL1        0.0490
     42 H           5.3150    9.4953   19.5768 H       1  UNL1        0.0490
     43 H           7.7380    4.9054   20.4615 H       1  UNL1        0.0494
     44 H           7.8457    5.6962   22.0206 H       1  UNL1        0.0494
     45 H           6.4703    3.2762   19.6759 H       1  UNL1        0.0465
     46 H           4.7943    2.9970   19.0623 H       1  UNL1        0.0465
     47 H           4.8772    3.1232   23.3587 H       1  UNL1        0.0465
     48 H           6.5290    3.3546   22.6469 H       1  UNL1        0.0465
     49 H           5.5240    5.4220   18.9550 H       1  UNL1        0.0309
     50 H           4.0401    5.1166   19.9810 H       1  UNL1        0.0309
     51 H           4.1257    5.2564   22.4492 H       1  UNL1        0.0309
     52 H           5.7354    5.5260   23.2776 H       1  UNL1        0.0309
     53 H           4.3753   11.6174   19.1018 H       1  UNL1        0.0643
     54 H           2.8471   12.9374   20.7146 H       1  UNL1        0.0624
     55 H           8.4485   14.5412   20.4141 H       1  UNL1        0.0624
     56 H           6.8838   15.8913   22.0603 H       1  UNL1        0.0638
     57 H           8.6797   12.6829   18.7063 H       1  UNL1        0.0637
     58 H           2.5930   14.7995   22.3970 H       1  UNL1        0.0632
     59 H           7.7223    9.6059   21.4448 H       1  UNL1        0.0606
     60 H           5.9072    9.7983   21.6475 H       1  UNL1        0.0606
     61 H           8.0156    8.5854   24.7269 H       1  UNL1        0.0524
     62 H           8.5826    7.6481   23.3033 H       1  UNL1        0.0524
     63 H           8.7003    9.4405   23.3033 H       1  UNL1        0.0524
     64 H           3.7447    1.4202   19.0648 H       1  UNL1        0.0651
     65 H           2.4497   -0.7240   19.2348 H       1  UNL1        0.0830
     66 H           3.1151   -0.9870   23.4520 H       1  UNL1        0.0830
     67 H           4.4369    1.1544   23.4683 H       1  UNL1        0.0651
@<TRIPOS>BOND
     1     2     1    2
     2     3     1    1
     3     4     3    1
     4     6     5    1
     5     6     4    1
     6     7     5    1
     7     7     1   am
     8     8     7    1
     9    10     9    1
    10    11     9    1
    11    12     8    1
    12    13    12    1
    13    13     5    1
    14    14    10    1
    15    14    12    1
    16    15    11    1
    17    15    12    1
    18    16     4    1
    19    17    16    2
    20    18    16    2
    21    19    16    1
    22    20    19   ar
    23    21    20   ar
    24    22    21   ar
    25    23    21   ar
    26    24    22   ar
    27    25    22   ar
    28    26    24   ar
    29    26    19   ar
    30    27    25   ar
    31    28    27    1
    32    29    23   ar
    33    29    27   ar
    34    30     5    1
    35    31    30    1
    36    32    31    1
    37    33     9    1
    38    34    33   ar
    39    35    34   ar
    40    36    35   ar
    41    37    36   ar
    42    38    33   ar
    43    38    37   ar
    44     3    39    1
    45     3    40    1
    46     6    41    1
    47     6    42    1
    48     8    43    1
    49     8    44    1
    50    10    45    1
    51    10    46    1
    52    11    47    1
    53    11    48    1
    54    14    49    1
    55    14    50    1
    56    15    51    1
    57    15    52    1
    58    20    53    1
    59    23    54    1
    60    24    55    1
    61    25    56    1
    62    26    57    1
    63    29    58    1
    64    30    59    1
    65    30    60    1
    66    32    61    1
    67    32    62    1
    68    32    63    1
    69    34    64    1
    70    35    65    1
    71    37    66    1
    72    38    67    1
