SM9
  -OEChem-02242319253D

 84 88  0     1  0  0  0  0  0999 V2000
   -0.7990    2.6920   -1.3210 C   0  0  0  0  0  0  0  0  0  0  0  0
   -1.3100    1.4620   -0.5670 C   0  0  1  0  0  0  0  0  0  0  0  0
   -2.8390    1.4930   -0.5160 C   0  0  0  0  0  0  0  0  0  0  0  0
   -0.8800    0.2780   -1.2410 O   0  0  0  0  0  0  0  0  0  0  0  0
   -3.3240    0.3730    0.2940 N   0  0  3  0  0  0  0  0  0  0  0  0
   -2.9910    0.3020    1.7190 C   0  0  0  0  0  0  0  0  0  0  0  0
   -3.8010    1.3500    2.4840 C   0  0  0  0  0  0  0  0  0  0  0  0
   -3.1420   -1.9740   -1.1320 C   0  0  0  0  0  0  0  0  0  0  0  0
   -2.6390   -3.0180   -0.3790 C   0  0  0  0  0  0  0  0  0  0  0  0
   -1.7710   -3.9290   -0.9520 C   0  0  0  0  0  0  0  0  0  0  0  0
   -1.4060   -3.7950   -2.2790 C   0  0  0  0  0  0  0  0  0  0  0  0
   -1.9090   -2.7510   -3.0320 C   0  0  0  0  0  0  0  0  0  0  0  0
   -2.7820   -1.8440   -2.4610 C   0  0  0  0  0  0  0  0  0  0  0  0
   -3.3300   -0.7060   -3.2820 C   0  0  0  0  0  0  0  0  0  0  0  0
   -3.0360   -3.1630    1.0670 C   0  0  0  0  0  0  0  0  0  0  0  0
    2.7140    2.8480    0.0190 C   0  0  2  0  0  0  0  0  0  0  0  0
    3.3260    3.7960   -1.0090 C   0  0  0  0  0  0  0  0  0  0  0  0
    2.7200    3.5070   -2.3860 C   0  0  0  0  0  0  0  0  0  0  0  0
    1.1970    3.6440   -2.3040 C   0  0  0  0  0  0  0  0  0  0  0  0
    0.6700    2.6920   -1.3180 N   0  0  1  0  0  0  0  0  0  0  0  0
    1.1940    2.9750    0.0250 C   0  0  0  0  0  0  0  0  0  0  0  0
    3.2750    3.1600    1.4210 C   0  0  0  0  0  0  0  0  0  0  0  0
    4.4110    2.1170    1.5770 C   0  0  0  0  0  0  0  0  0  0  0  0
    3.8580    0.9090    0.9130 N   0  0  1  0  0  0  0  0  0  0  0  0
    3.1280    1.4000   -0.2780 C   0  0  0  0  0  0  0  0  0  0  0  0
    4.8650    0.0400    0.5510 C   0  0  0  0  0  0  0  0  0  0  0  0
    4.8540   -1.3090    0.9860 C   0  0  0  0  0  0  0  0  0  0  0  0
    5.9170   -2.1510    0.5800 C   0  0  0  0  0  0  0  0  0  0  0  0
    6.8850   -1.6400   -0.1960 N   0  0  0  0  0  0  0  0  0  0  0  0
    6.8430   -0.3830   -0.5690 C   0  0  0  0  0  0  0  0  0  0  0  0
    5.8680    0.4410   -0.2180 N   0  0  0  0  0  0  0  0  0  0  0  0
    3.8340   -1.8210    1.7940 C   0  0  0  0  0  0  0  0  0  0  0  0
    3.8760   -3.1280    2.1820 C   0  0  0  0  0  0  0  0  0  0  0  0
    4.9200   -3.9580    1.7840 C   0  0  0  0  0  0  0  0  0  0  0  0
    5.9290   -3.4890    0.9960 C   0  0  0  0  0  0  0  0  0  0  0  0
   -5.1920    1.0300    2.4030 O   0  0  0  0  0  0  0  0  0  0  0  0
   -7.4990    1.5130    2.9370 C   0  0  0  0  0  0  0  0  0  0  0  0
   -6.0410    1.9520    3.0890 C   0  0  0  0  0  0  0  0  0  0  0  0
   -4.2470   -0.8120   -0.4020 S   0  0  0  0  0  0  0  0  0  0  0  0
   -4.8960   -1.4920    0.6640 O   0  0  0  0  0  0  0  0  0  0  0  0
   -4.9490   -0.1980   -1.4740 O   0  0  0  0  0  0  0  0  0  0  0  0
   -1.1610    2.6640   -2.3480 H   0  0  0  0  0  0  0  0  0  0  0  0
   -1.1630    3.5950   -0.8310 H   0  0  0  0  0  0  0  0  0  0  0  0
   -0.9130    1.4670    0.4480 H   0  0  0  0  0  0  0  0  0  0  0  0
   -3.1680    2.4320   -0.0720 H   0  0  0  0  0  0  0  0  0  0  0  0
   -3.2370    1.4100   -1.5280 H   0  0  0  0  0  0  0  0  0  0  0  0
   -1.1550    0.2300   -2.1670 H   0  0  0  0  0  0  0  0  0  0  0  0
   -3.2320   -0.6910    2.0980 H   0  0  0  0  0  0  0  0  0  0  0  0
   -1.9270    0.4950    1.8540 H   0  0  0  0  0  0  0  0  0  0  0  0
   -3.4900    1.3580    3.5290 H   0  0  0  0  0  0  0  0  0  0  0  0
   -3.6290    2.3330    2.0460 H   0  0  0  0  0  0  0  0  0  0  0  0
   -1.3780   -4.7440   -0.3630 H   0  0  0  0  0  0  0  0  0  0  0  0
   -0.7280   -4.5070   -2.7260 H   0  0  0  0  0  0  0  0  0  0  0  0
   -1.6240   -2.6470   -4.0690 H   0  0  0  0  0  0  0  0  0  0  0  0
   -4.2860   -0.9980   -3.7170 H   0  0  0  0  0  0  0  0  0  0  0  0
   -3.4720    0.1670   -2.6450 H   0  0  0  0  0  0  0  0  0  0  0  0
   -2.6280   -0.4620   -4.0800 H   0  0  0  0  0  0  0  0  0  0  0  0
   -3.9910   -3.6850    1.1310 H   0  0  0  0  0  0  0  0  0  0  0  0
   -2.2740   -3.7330    1.5980 H   0  0  0  0  0  0  0  0  0  0  0  0
   -3.1320   -2.1750    1.5190 H   0  0  0  0  0  0  0  0  0  0  0  0
    3.1130    4.8260   -0.7260 H   0  0  0  0  0  0  0  0  0  0  0  0
    4.4050    3.6430   -1.0470 H   0  0  0  0  0  0  0  0  0  0  0  0
    3.1110    4.2190   -3.1130 H   0  0  0  0  0  0  0  0  0  0  0  0
    2.9780    2.4930   -2.6930 H   0  0  0  0  0  0  0  0  0  0  0  0
    0.9400    4.6590   -2.0030 H   0  0  0  0  0  0  0  0  0  0  0  0
    0.7610    3.4340   -3.2810 H   0  0  0  0  0  0  0  0  0  0  0  0
    0.7740    2.2640    0.7360 H   0  0  0  0  0  0  0  0  0  0  0  0
    0.9160    3.9870    0.3170 H   0  0  0  0  0  0  0  0  0  0  0  0
    3.6730    4.1740    1.4600 H   0  0  0  0  0  0  0  0  0  0  0  0
    2.5090    3.0180    2.1830 H   0  0  0  0  0  0  0  0  0  0  0  0
    5.3150    2.4550    1.0700 H   0  0  0  0  0  0  0  0  0  0  0  0
    4.6120    1.9220    2.6300 H   0  0  0  0  0  0  0  0  0  0  0  0
    2.2440    0.7880   -0.4510 H   0  0  0  0  0  0  0  0  0  0  0  0
    3.7790    1.3700   -1.1520 H   0  0  0  0  0  0  0  0  0  0  0  0
    7.6390   -0.0030   -1.1930 H   0  0  0  0  0  0  0  0  0  0  0  0
    3.0190   -1.1860    2.1090 H   0  0  0  0  0  0  0  0  0  0  0  0
    3.0890   -3.5250    2.8060 H   0  0  0  0  0  0  0  0  0  0  0  0
    4.9310   -4.9890    2.1040 H   0  0  0  0  0  0  0  0  0  0  0  0
    6.7330   -4.1450    0.6950 H   0  0  0  0  0  0  0  0  0  0  0  0
   -8.1470    2.2170    3.4600 H   0  0  0  0  0  0  0  0  0  0  0  0
   -7.7630    1.4930    1.8800 H   0  0  0  0  0  0  0  0  0  0  0  0
   -7.6250    0.5180    3.3620 H   0  0  0  0  0  0  0  0  0  0  0  0
   -5.7760    1.9730    4.1470 H   0  0  0  0  0  0  0  0  0  0  0  0
   -5.9150    2.9480    2.6640 H   0  0  0  0  0  0  0  0  0  0  0  0
  1  2  1  0  0  0  0
  1 20  1  0  0  0  0
  1 42  1  0  0  0  0
  1 43  1  0  0  0  0
  2  4  1  0  0  0  0
  2  3  1  0  0  0  0
  2 44  1  0  0  0  0
  3  5  1  0  0  0  0
  3 45  1  0  0  0  0
  3 46  1  0  0  0  0
  4 47  1  0  0  0  0
  5  6  1  0  0  0  0
  5 39  1  0  0  0  0
  6  7  1  0  0  0  0
  6 48  1  0  0  0  0
  6 49  1  0  0  0  0
  7 36  1  0  0  0  0
  7 50  1  0  0  0  0
  7 51  1  0  0  0  0
  8 13  2  0  0  0  0
  8  9  1  0  0  0  0
  8 39  1  0  0  0  0
  9 10  2  0  0  0  0
  9 15  1  0  0  0  0
 10 11  1  0  0  0  0
 10 52  1  0  0  0  0
 11 12  2  0  0  0  0
 11 53  1  0  0  0  0
 12 13  1  0  0  0  0
 12 54  1  0  0  0  0
 13 14  1  0  0  0  0
 14 55  1  0  0  0  0
 14 56  1  0  0  0  0
 14 57  1  0  0  0  0
 15 58  1  0  0  0  0
 15 59  1  0  0  0  0
 15 60  1  0  0  0  0
 16 25  1  0  0  0  0
 16 22  1  0  0  0  0
 16 21  1  0  0  0  0
 16 17  1  0  0  0  0
 17 18  1  0  0  0  0
 17 61  1  0  0  0  0
 17 62  1  0  0  0  0
 18 19  1  0  0  0  0
 18 63  1  0  0  0  0
 18 64  1  0  0  0  0
 19 20  1  0  0  0  0
 19 65  1  0  0  0  0
 19 66  1  0  0  0  0
 20 21  1  0  0  0  0
 21 67  1  0  0  0  0
 21 68  1  0  0  0  0
 22 23  1  0  0  0  0
 22 69  1  0  0  0  0
 22 70  1  0  0  0  0
 23 24  1  0  0  0  0
 23 71  1  0  0  0  0
 23 72  1  0  0  0  0
 24 26  1  0  0  0  0
 24 25  1  0  0  0  0
 25 73  1  0  0  0  0
 25 74  1  0  0  0  0
 26 31  2  0  0  0  0
 26 27  1  0  0  0  0
 27 28  1  0  0  0  0
 27 32  2  0  0  0  0
 28 29  1  0  0  0  0
 28 35  2  0  0  0  0
 29 30  2  0  0  0  0
 30 31  1  0  0  0  0
 30 75  1  0  0  0  0
 32 33  1  0  0  0  0
 32 76  1  0  0  0  0
 33 34  2  0  0  0  0
 33 77  1  0  0  0  0
 34 35  1  0  0  0  0
 34 78  1  0  0  0  0
 35 79  1  0  0  0  0
 36 38  1  0  0  0  0
 37 38  1  0  0  0  0
 37 80  1  0  0  0  0
 37 81  1  0  0  0  0
 37 82  1  0  0  0  0
 38 83  1  0  0  0  0
 38 84  1  0  0  0  0
 39 41  2  0  0  0  0
 39 40  2  0  0  0  0
M  END
> <OPENEYE_ISO_SMILES>
CCOCCN(C[C@H](C[N@]1CCC[C@]2(C1)CC[N@@](C2)c3c4ccccc4ncn3)O)S(=O)(=O)c5c(cccc5C)C

> <OPENEYE_INCHI>
InChI=1S/C31H43N5O4S/c1-4-40-18-17-36(41(38,39)29-24(2)9-7-10-25(29)3)20-26(37)19-34-15-8-13-31(21-34)14-16-35(22-31)30-27-11-5-6-12-28(27)32-23-33-30/h5-7,9-12,23,26,37H,4,8,13-22H2,1-3H3/t26-,31+/m0/s1

> <OPENEYE_INCHIKEY>
ABPGHPHYGKUEIO-SUYBVONHSA-N

> <FORMULA>
C31H43N5O4S

$$$$
