SM9
  Mrv15b2303062314262D          

 41 45  0  0  0  0            999 V2000
    0.3437   -0.2959    0.0000 C   0  0  0  0  0  0  0  0  0  0  0  0
   -0.1413   -0.9633    0.0000 C   0  0  1  0  0  0  0  0  0  0  0  0
    0.1943   -1.7170    0.0000 C   0  0  0  0  0  0  0  0  0  0  0  0
   -0.9617   -0.8771    0.0000 O   0  0  0  0  0  0  0  0  0  0  0  0
   -0.2906   -2.3844    0.0000 N   0  0  0  0  0  0  0  0  0  0  0  0
   -1.1111   -2.2982    0.0000 C   0  0  0  0  0  0  0  0  0  0  0  0
   -1.5960   -2.9656    0.0000 C   0  0  0  0  0  0  0  0  0  0  0  0
    0.3805   -3.8918    0.0000 C   0  0  0  0  0  0  0  0  0  0  0  0
   -0.1044   -4.5592    0.0000 C   0  0  0  0  0  0  0  0  0  0  0  0
    0.2311   -5.3129    0.0000 C   0  0  0  0  0  0  0  0  0  0  0  0
    1.0516   -5.3991    0.0000 C   0  0  0  0  0  0  0  0  0  0  0  0
    1.5365   -4.7317    0.0000 C   0  0  0  0  0  0  0  0  0  0  0  0
    1.2010   -3.9780    0.0000 C   0  0  0  0  0  0  0  0  0  0  0  0
    1.6859   -3.3106    0.0000 C   0  0  0  0  0  0  0  0  0  0  0  0
   -0.9249   -4.4730    0.0000 C   0  0  0  0  0  0  0  0  0  0  0  0
    0.1575    1.8789    0.0000 C   0  0  2  0  0  0  0  0  0  0  0  0
   -0.6630    1.9652    0.0000 C   0  0  0  0  0  0  0  0  0  0  0  0
   -1.1479    1.2977    0.0000 C   0  0  0  0  0  0  0  0  0  0  0  0
   -0.8124    0.5441    0.0000 C   0  0  0  0  0  0  0  0  0  0  0  0
    0.0081    0.4578    0.0000 N   0  0  0  0  0  0  0  0  0  0  0  0
    0.4930    1.1253    0.0000 C   0  0  0  0  0  0  0  0  0  0  0  0
    0.9825    1.8789    0.0000 C   0  0  0  0  0  0  0  0  0  0  0  0
    1.2374    2.6636    0.0000 C   0  0  0  0  0  0  0  0  0  0  0  0
    0.5700    3.1485    0.0000 N   0  0  0  0  0  0  0  0  0  0  0  0
   -0.0975    2.6636    0.0000 C   0  0  0  0  0  0  0  0  0  0  0  0
    0.5700    3.9735    0.0000 C   0  0  0  0  0  0  0  0  0  0  0  0
    1.2844    4.3860    0.0000 C   0  0  0  0  0  0  0  0  0  0  0  0
    1.2844    5.2110    0.0000 C   0  0  0  0  0  0  0  0  0  0  0  0
    0.5700    5.6235    0.0000 N   0  0  0  0  0  0  0  0  0  0  0  0
   -0.1445    5.2110    0.0000 C   0  0  0  0  0  0  0  0  0  0  0  0
   -0.1445    4.3860    0.0000 N   0  0  0  0  0  0  0  0  0  0  0  0
    1.9989    3.9735    0.0000 C   0  0  0  0  0  0  0  0  0  0  0  0
    2.7134    4.3860    0.0000 C   0  0  0  0  0  0  0  0  0  0  0  0
    2.7134    5.2110    0.0000 C   0  0  0  0  0  0  0  0  0  0  0  0
    1.9989    5.6235    0.0000 C   0  0  0  0  0  0  0  0  0  0  0  0
   -2.4165   -2.8794    0.0000 O   0  0  0  0  0  0  0  0  0  0  0  0
   -3.7219   -3.4606    0.0000 C   0  0  0  0  0  0  0  0  0  0  0  0
   -2.9014   -3.5468    0.0000 C   0  0  0  0  0  0  0  0  0  0  0  0
    0.0449   -3.1381    0.0000 S   0  0  0  0  0  0  0  0  0  0  0  0
   -0.7087   -3.4736    0.0000 O   0  0  0  0  0  0  0  0  0  0  0  0
    0.7986   -2.8025    0.0000 O   0  0  0  0  0  0  0  0  0  0  0  0
  1  2  1  0  0  0  0
  1 20  1  0  0  0  0
  2  4  1  1  0  0  0
  2  3  1  0  0  0  0
  3  5  1  0  0  0  0
  5  6  1  0  0  0  0
  5 39  1  0  0  0  0
  6  7  1  0  0  0  0
  7 36  1  0  0  0  0
  8 13  4  0  0  0  0
  8  9  4  0  0  0  0
  8 39  1  0  0  0  0
  9 10  4  0  0  0  0
  9 15  1  0  0  0  0
 10 11  4  0  0  0  0
 11 12  4  0  0  0  0
 12 13  4  0  0  0  0
 13 14  1  0  0  0  0
 16 25  1  6  0  0  0
 16 22  1  1  0  0  0
 16 21  1  0  0  0  0
 16 17  1  0  0  0  0
 17 18  1  0  0  0  0
 18 19  1  0  0  0  0
 19 20  1  0  0  0  0
 20 21  1  0  0  0  0
 22 23  1  0  0  0  0
 23 24  1  0  0  0  0
 24 26  1  0  0  0  0
 24 25  1  0  0  0  0
 26 31  4  0  0  0  0
 26 27  4  0  0  0  0
 27 28  4  0  0  0  0
 27 32  4  0  0  0  0
 28 29  4  0  0  0  0
 28 35  4  0  0  0  0
 29 30  4  0  0  0  0
 30 31  4  0  0  0  0
 32 33  4  0  0  0  0
 33 34  4  0  0  0  0
 34 35  4  0  0  0  0
 36 38  1  0  0  0  0
 37 38  1  0  0  0  0
 39 41  2  0  0  0  0
 39 40  2  0  0  0  0
M  END
