@<TRIPOS>MOLECULE
SM9
 84 88 0 0 0
SMALL
GASTEIGER

@<TRIPOS>ATOM
      1 C          -0.7990    2.6920   -1.3210 C.3     1  LIG1        0.0262
      2 C          -1.3100    1.4620   -0.5670 C.3     1  LIG1        0.0822
      3 C          -2.8390    1.4930   -0.5160 C.3     1  LIG1        0.0478
      4 O          -0.8800    0.2780   -1.2410 O.3     1  LIG1       -0.3892
      5 N          -3.3240    0.3730    0.2940 N.3     1  LIG1       -0.1719
      6 C          -2.9910    0.3020    1.7190 C.3     1  LIG1        0.0440
      7 C          -3.8010    1.3500    2.4840 C.3     1  LIG1        0.0620
      8 C          -3.1420   -1.9740   -1.1320 C.ar    1  LIG1        0.1113
      9 C          -2.6390   -3.0180   -0.3790 C.ar    1  LIG1       -0.0239
     10 C          -1.7710   -3.9290   -0.9520 C.ar    1  LIG1       -0.0570
     11 C          -1.4060   -3.7950   -2.2790 C.ar    1  LIG1       -0.0612
     12 C          -1.9090   -2.7510   -3.0320 C.ar    1  LIG1       -0.0570
     13 C          -2.7820   -1.8440   -2.4610 C.ar    1  LIG1       -0.0239
     14 C          -3.3300   -0.7060   -3.2820 C.3     1  LIG1       -0.0378
     15 C          -3.0360   -3.1630    1.0670 C.3     1  LIG1       -0.0378
     16 C           2.7140    2.8480    0.0190 C.3     1  LIG1        0.0007
     17 C           3.3260    3.7960   -1.0090 C.3     1  LIG1       -0.0436
     18 C           2.7200    3.5070   -2.3860 C.3     1  LIG1       -0.0396
     19 C           1.1970    3.6440   -2.3040 C.3     1  LIG1       -0.0010
     20 N           0.6700    2.6920   -1.3180 N.3     1  LIG1       -0.2993
     21 C           1.1940    2.9750    0.0250 C.3     1  LIG1        0.0061
     22 C           3.2750    3.1600    1.4210 C.3     1  LIG1       -0.0289
     23 C           4.4110    2.1170    1.5770 C.3     1  LIG1        0.0141
     24 N           3.8580    0.9090    0.9130 N.pl3   1  LIG1       -0.3140
     25 C           3.1280    1.4000   -0.2780 C.3     1  LIG1        0.0204
     26 C           4.8650    0.0400    0.5510 C.ar    1  LIG1        0.1322
     27 C           4.8540   -1.3090    0.9860 C.ar    1  LIG1        0.0403
     28 C           5.9170   -2.1510    0.5800 C.ar    1  LIG1        0.0760
     29 N           6.8850   -1.6400   -0.1960 N.ar    1  LIG1       -0.2353
     30 C           6.8430   -0.3830   -0.5690 C.ar    1  LIG1        0.1187
     31 N           5.8680    0.4410   -0.2180 N.ar    1  LIG1       -0.2201
     32 C           3.8340   -1.8210    1.7940 C.ar    1  LIG1       -0.0493
     33 C           3.8760   -3.1280    2.1820 C.ar    1  LIG1       -0.0610
     34 C           4.9200   -3.9580    1.7840 C.ar    1  LIG1       -0.0597
     35 C           5.9290   -3.4890    0.9960 C.ar    1  LIG1       -0.0356
     36 O          -5.1920    1.0300    2.4030 O.3     1  LIG1       -0.3787
     37 C          -7.4990    1.5130    2.9370 C.3     1  LIG1       -0.0416
     38 C          -6.0410    1.9520    3.0890 C.3     1  LIG1        0.0449
     39 S          -4.2470   -0.8120   -0.4020 S.O2    1  LIG1        0.0615
     40 O          -4.8960   -1.4920    0.6640 O.2     1  LIG1       -0.1528
     41 O          -4.9490   -0.1980   -1.4740 O.2     1  LIG1       -0.1528
     42 H          -1.1610    2.6640   -2.3480 H       1  LIG1        0.0452
     43 H          -1.1630    3.5950   -0.8310 H       1  LIG1        0.0452
     44 H          -0.9130    1.4670    0.4480 H       1  LIG1        0.0619
     45 H          -3.1680    2.4320   -0.0720 H       1  LIG1        0.0470
     46 H          -3.2370    1.4100   -1.5280 H       1  LIG1        0.0470
     47 H          -1.1550    0.2300   -2.1670 H       1  LIG1        0.2099
     48 H          -3.2320   -0.6910    2.0980 H       1  LIG1        0.0466
     49 H          -1.9270    0.4950    1.8540 H       1  LIG1        0.0466
     50 H          -3.4900    1.3580    3.5290 H       1  LIG1        0.0573
     51 H          -3.6290    2.3330    2.0460 H       1  LIG1        0.0573
     52 H          -1.3780   -4.7440   -0.3630 H       1  LIG1        0.0621
     53 H          -0.7280   -4.5070   -2.7260 H       1  LIG1        0.0618
     54 H          -1.6240   -2.6470   -4.0690 H       1  LIG1        0.0621
     55 H          -4.2860   -0.9980   -3.7170 H       1  LIG1        0.0278
     56 H          -3.4720    0.1670   -2.6450 H       1  LIG1        0.0278
     57 H          -2.6280   -0.4620   -4.0800 H       1  LIG1        0.0278
     58 H          -3.9910   -3.6850    1.1310 H       1  LIG1        0.0278
     59 H          -2.2740   -3.7330    1.5980 H       1  LIG1        0.0278
     60 H          -3.1320   -2.1750    1.5190 H       1  LIG1        0.0278
     61 H           3.1130    4.8260   -0.7260 H       1  LIG1        0.0272
     62 H           4.4050    3.6430   -1.0470 H       1  LIG1        0.0272
     63 H           3.1110    4.2190   -3.1130 H       1  LIG1        0.0278
     64 H           2.9780    2.4930   -2.6930 H       1  LIG1        0.0278
     65 H           0.9400    4.6590   -2.0030 H       1  LIG1        0.0427
     66 H           0.7610    3.4340   -3.2810 H       1  LIG1        0.0427
     67 H           0.7740    2.2640    0.7360 H       1  LIG1        0.0432
     68 H           0.9160    3.9870    0.3170 H       1  LIG1        0.0432
     69 H           3.6730    4.1740    1.4600 H       1  LIG1        0.0287
     70 H           2.5090    3.0180    2.1830 H       1  LIG1        0.0287
     71 H           5.3150    2.4550    1.0700 H       1  LIG1        0.0464
     72 H           4.6120    1.9220    2.6300 H       1  LIG1        0.0464
     73 H           2.2440    0.7880   -0.4510 H       1  LIG1        0.0470
     74 H           3.7790    1.3700   -1.1520 H       1  LIG1        0.0470
     75 H           7.6390   -0.0030   -1.1930 H       1  LIG1        0.1048
     76 H           3.0190   -1.1860    2.1090 H       1  LIG1        0.0625
     77 H           3.0890   -3.5250    2.8060 H       1  LIG1        0.0618
     78 H           4.9310   -4.9890    2.1040 H       1  LIG1        0.0618
     79 H           6.7330   -4.1450    0.6950 H       1  LIG1        0.0639
     80 H          -8.1470    2.2170    3.4600 H       1  LIG1        0.0252
     81 H          -7.7630    1.4930    1.8800 H       1  LIG1        0.0252
     82 H          -7.6250    0.5180    3.3620 H       1  LIG1        0.0252
     83 H          -5.7760    1.9730    4.1470 H       1  LIG1        0.0557
     84 H          -5.9150    2.9480    2.6640 H       1  LIG1        0.0557
@<TRIPOS>BOND
     1     1     2    1
     2     1    20    1
     3     1    42    1
     4     1    43    1
     5     2     4    1
     6     2     3    1
     7     2    44    1
     8     3     5    1
     9     3    45    1
    10     3    46    1
    11     4    47    1
    12     5     6    1
    13     5    39    1
    14     6     7    1
    15     6    48    1
    16     6    49    1
    17     7    36    1
    18     7    50    1
    19     7    51    1
    20     8    13   ar
    21     8     9   ar
    22     8    39    1
    23     9    10   ar
    24     9    15    1
    25    10    11   ar
    26    10    52    1
    27    11    12   ar
    28    11    53    1
    29    12    13   ar
    30    12    54    1
    31    13    14    1
    32    14    55    1
    33    14    56    1
    34    14    57    1
    35    15    58    1
    36    15    59    1
    37    15    60    1
    38    16    25    1
    39    16    22    1
    40    16    21    1
    41    16    17    1
    42    17    18    1
    43    17    61    1
    44    17    62    1
    45    18    19    1
    46    18    63    1
    47    18    64    1
    48    19    20    1
    49    19    65    1
    50    19    66    1
    51    20    21    1
    52    21    67    1
    53    21    68    1
    54    22    23    1
    55    22    69    1
    56    22    70    1
    57    23    24    1
    58    23    71    1
    59    23    72    1
    60    24    26    1
    61    24    25    1
    62    25    73    1
    63    25    74    1
    64    26    31   ar
    65    26    27   ar
    66    27    28   ar
    67    27    32   ar
    68    28    29   ar
    69    28    35   ar
    70    29    30   ar
    71    30    31   ar
    72    30    75    1
    73    32    33   ar
    74    32    76    1
    75    33    34   ar
    76    33    77    1
    77    34    35   ar
    78    34    78    1
    79    35    79    1
    80    36    38    1
    81    37    38    1
    82    37    80    1
    83    37    81    1
    84    37    82    1
    85    38    83    1
    86    38    84    1
    87    39    41    2
    88    39    40    2
