@<TRIPOS>MOLECULE
AZ2
 52 53 0 0 0
SMALL
GASTEIGER

@<TRIPOS>ATOM
      1 C           5.9690   -2.0070   39.1520 C.ar    1  UNL1       -0.0442
      2 C           5.8490   -3.4110   38.9020 C.ar    1  UNL1       -0.0550
      3 C           6.9630   -4.1500   38.4080 C.ar    1  UNL1       -0.0197
      4 C           8.2150   -3.4940   38.1550 C.ar    1  UNL1        0.1205
      5 C           8.3190   -2.1080   38.4080 C.ar    1  UNL1       -0.0197
      6 C           7.2050   -1.3730   38.9010 C.ar    1  UNL1       -0.0550
      7 O           9.2670   -4.2750   37.6670 O.3     1  UNL1       -0.4916
      8 C           9.9180   -3.9910   36.4040 C.3     1  UNL1        0.0935
      9 C           9.0900   -4.6600   35.3030 C.3     1  UNL1        0.0067
     10 C           7.9930   -3.7640   34.7990 C.ar    1  UNL1       -0.0439
     11 C           8.0650   -2.3500   34.9740 C.ar    1  UNL1       -0.0549
     12 C           7.0200   -1.5080   34.4970 C.ar    1  UNL1       -0.0168
     13 C           5.8930   -2.0780   33.8410 C.ar    1  UNL1        0.1564
     14 C           5.8160   -3.4820   33.6600 C.ar    1  UNL1       -0.0168
     15 C           6.8620   -4.3120   34.1390 C.ar    1  UNL1       -0.0549
     16 O           4.9530   -1.1810   33.4190 O.3     1  UNL1       -0.3463
     17 S           5.2540   -0.2310   32.1410 S.O2    1  UNL1        0.1178
     18 C           4.7580    1.3060   32.8840 C.3     1  UNL1        0.0920
     19 O           6.6750   -0.1860   31.9220 O.2     1  UNL1       -0.1370
     20 O           4.3190   -0.5580   31.0690 O.2     1  UNL1       -0.1370
     21 C           4.7990   -1.2040   39.6730 C.3     1  UNL1        0.0092
     22 C           3.4870   -1.3320   38.8660 C.3     1  UNL1        0.1587
     23 O           2.9610   -0.0090   38.7250 O.3     1  UNL1       -0.3653
     24 C           2.8640    0.4580   37.3970 C.3     1  UNL1        0.0459
     25 C           1.3850    0.4950   37.0610 C.3     1  UNL1       -0.0415
     26 C           2.5450   -2.3070   39.6140 C.2     1  UNL1        0.3342
     27 O           1.2420   -2.1350   39.2990 O.2     1  UNL1       -0.2481
     28 O           2.8730   -3.1640   40.4070 O.3     1  UNL1       -0.4788
     29 H           4.8934   -3.9217   39.0918 H       1  UNL1        0.0621
     30 H           6.8631   -5.2291   38.2194 H       1  UNL1        0.0654
     31 H           9.2720   -1.5912   38.2217 H       1  UNL1        0.0654
     32 H           7.3085   -0.2942   39.0894 H       1  UNL1        0.0621
     33 H           9.9578   -2.9044   36.2372 H       1  UNL1        0.0700
     34 H          10.9489   -4.3746   36.4029 H       1  UNL1        0.0700
     35 H           9.7544   -4.9141   34.4640 H       1  UNL1        0.0346
     36 H           8.6238   -5.5607   35.7288 H       1  UNL1        0.0346
     37 H           8.9345   -1.9065   35.4813 H       1  UNL1        0.0621
     38 H           7.0839   -0.4186   34.6355 H       1  UNL1        0.0655
     39 H           4.9484   -3.9261   33.1500 H       1  UNL1        0.0655
     40 H           6.7954   -5.4007   33.9963 H       1  UNL1        0.0621
     41 H           4.7888    1.2105   33.9794 H       1  UNL1        0.0499
     42 H           5.4439    2.1051   32.5662 H       1  UNL1        0.0499
     43 H           3.7344    1.5534   32.5662 H       1  UNL1        0.0499
     44 H           4.5957   -1.5320   40.7031 H       1  UNL1        0.0344
     45 H           5.0993   -0.1489   39.5924 H       1  UNL1        0.0344
     46 H           3.6283   -1.7517   37.8591 H       1  UNL1        0.0716
     47 H           3.2976    1.4657   37.3158 H       1  UNL1        0.0557
     48 H           3.4134   -0.1961   36.7039 H       1  UNL1        0.0557
     49 H           0.7979    0.5097   37.9911 H       1  UNL1        0.0252
     50 H           1.1648    1.3989   36.4741 H       1  UNL1        0.0252
     51 H           1.1199   -0.3968   36.4741 H       1  UNL1        0.0252
     52 H           2.1849   -3.7363   40.8302 H       1  UNL1        0.2951
@<TRIPOS>BOND
     1     2     1   ar
     2     3     2   ar
     3     4     3   ar
     4     5     4   ar
     5     6     5   ar
     6     6     1   ar
     7     7     4    1
     8     8     7    1
     9     9     8    1
    10    10     9    1
    11    11    10   ar
    12    12    11   ar
    13    13    12   ar
    14    14    13   ar
    15    15    14   ar
    16    15    10   ar
    17    16    13    1
    18    17    16    1
    19    18    17    1
    20    19    17    2
    21    20    17    2
    22    21     1    1
    23    22    21    1
    24    23    22    1
    25    24    23    1
    26    25    24    1
    27    26    22    1
    28    27    26    2
    29    28    26    1
    30     2    29    1
    31     3    30    1
    32     5    31    1
    33     6    32    1
    34     8    33    1
    35     8    34    1
    36     9    35    1
    37     9    36    1
    38    11    37    1
    39    12    38    1
    40    14    39    1
    41    15    40    1
    42    18    41    1
    43    18    42    1
    44    18    43    1
    45    21    44    1
    46    21    45    1
    47    22    46    1
    48    24    47    1
    49    24    48    1
    50    25    49    1
    51    25    50    1
    52    25    51    1
    53    28    52    1
