@<TRIPOS>MOLECULE
655
 45 48 0 0 0
SMALL
GASTEIGER

@<TRIPOS>ATOM
      1 C           9.2190    1.0480   24.9070 C.ar    1  UNL1        0.0629
      2 C           9.4890    1.1170   23.5120 C.ar    1  UNL1       -0.0450
      3 C           9.8860    2.2880   22.8910 C.ar    1  UNL1       -0.0354
      4 N          10.2270    4.6370   23.4000 N.ar    1  UNL1       -0.3379
      5 C           9.9320    3.4150   23.6660 C.ar    1  UNL1        0.0665
      6 N           9.7640    4.5750   25.5630 N.ar    1  UNL1       -0.2277
      7 C           9.6560    3.4010   24.9950 C.ar    1  UNL1        0.0903
      8 C           9.2770    2.2460   25.6280 C.ar    1  UNL1       -0.0195
      9 C          10.1390    5.2990   24.5220 C.ar    1  UNL1        0.1388
     10 C          10.3920    6.6400   24.5910 C.ar    1  UNL1        0.0130
     11 C          11.4940    7.2050   23.9370 C.ar    1  UNL1       -0.0545
     12 O          12.3760    6.4450   23.1730 O.co2   1  UNL1       -0.8709
     13 C          11.7500    8.5590   24.0100 C.ar    1  UNL1        0.1139
     14 C          10.9160    9.3940   24.7860 C.ar    1  UNL1       -0.0205
     15 C           9.8310    8.8620   25.4500 C.ar    1  UNL1       -0.0577
     16 C           9.5700    7.4920   25.3600 C.ar    1  UNL1       -0.0515
     17 O          12.8640    9.0020   23.3090 O.3     1  UNL1       -0.4894
     18 C          13.8060    9.8740   23.9380 C.3     1  UNL1        0.1002
     19 C          13.6470   11.2620   23.3200 C.3     1  UNL1       -0.0158
     20 C          14.8540   11.4810   22.4290 C.3     1  UNL1       -0.0496
     21 C          15.8920   10.4250   22.7730 C.3     1  UNL1       -0.0496
     22 C          15.1700    9.3420   23.5550 C.3     1  UNL1       -0.0158
     23 C           8.8520   -0.1470   25.5210 C.2     1  UNL1        0.2662
     24 N           8.8790   -0.2480   26.8250 N.2     1  UNL1       -0.2884
     25 N           8.4400   -1.1630   24.7900 N.pl3   1  UNL1       -0.2497
     26 H           9.3781    0.2064   22.9050 H       1  UNL1        0.0627
     27 H          10.1523    2.3120   21.8240 H       1  UNL1        0.0639
     28 H          10.4835    5.0205   22.4791 H       1  UNL1        0.1674
     29 H           9.0197    2.2606   26.6974 H       1  UNL1        0.0648
     30 H          11.1323   10.4699   24.8607 H       1  UNL1        0.0654
     31 H           9.1746    9.5121   26.0471 H       1  UNL1        0.0619
     32 H           8.7085    7.0699   25.8981 H       1  UNL1        0.0624
     33 H          13.6687    9.9266   25.0281 H       1  UNL1        0.0733
     34 H          12.7228   11.3089   22.7253 H       1  UNL1        0.0301
     35 H          13.5825   12.0372   24.0977 H       1  UNL1        0.0301
     36 H          14.5604   11.3854   21.3732 H       1  UNL1        0.0266
     37 H          15.2674   12.4880   22.5876 H       1  UNL1        0.0266
     38 H          16.3240   10.0042   21.8531 H       1  UNL1        0.0266
     39 H          16.7151   10.8562   23.3618 H       1  UNL1        0.0266
     40 H          15.0586    8.4425   22.9317 H       1  UNL1        0.0301
     41 H          15.7426    9.0736   24.4551 H       1  UNL1        0.0301
     42 H           8.6075   -1.1319   27.2788 H       1  UNL1        0.3009
     43 H           9.1717    0.5564   27.3979 H       1  UNL1        0.3009
     44 H           8.1684   -2.0471   25.2434 H       1  UNL1        0.2883
     45 H           8.3895   -1.0731   23.7652 H       1  UNL1        0.2883
@<TRIPOS>UNITY_ATOM_ATTR
12 1
charge -1
24 1
charge 1
@<TRIPOS>BOND
     1     2     1   ar
     2     3     2   ar
     3     5     4   ar
     4     5     3   ar
     5     7     6   ar
     6     7     5   ar
     7     8     7   ar
     8     8     1   ar
     9     9     6   ar
    10     9     4   ar
    11    10     9    1
    12    11    10   ar
    13    12    11    1
    14    13    11   ar
    15    14    13   ar
    16    15    14   ar
    17    16    15   ar
    18    16    10   ar
    19    17    13    1
    20    18    17    1
    21    19    18    1
    22    20    19    1
    23    21    20    1
    24    22    21    1
    25    22    18    1
    26    23     1    1
    27    24    23    2
    28    25    23    1
    29     2    26    1
    30     3    27    1
    31     4    28    1
    32     8    29    1
    33    14    30    1
    34    15    31    1
    35    16    32    1
    36    18    33    1
    37    19    34    1
    38    19    35    1
    39    20    36    1
    40    20    37    1
    41    21    38    1
    42    21    39    1
    43    22    40    1
    44    22    41    1
    45    24    42    1
    46    24    43    1
    47    25    44    1
    48    25    45    1
