655
 OpenBabel11102215273D

 45 48  0  0  0  0  0  0  0  0999 V2000
    9.2190    1.0480   24.9070 C   0  0  0  0  0  0  0  0  0  0  0  0
    9.4890    1.1170   23.5120 C   0  0  0  0  0  0  0  0  0  0  0  0
    9.8860    2.2880   22.8910 C   0  0  0  0  0  0  0  0  0  0  0  0
   10.2270    4.6370   23.4000 N   0  0  0  0  0  0  0  0  0  0  0  0
    9.9320    3.4150   23.6660 C   0  0  0  0  0  0  0  0  0  0  0  0
    9.7640    4.5750   25.5630 N   0  0  0  0  0  0  0  0  0  0  0  0
    9.6560    3.4010   24.9950 C   0  0  0  0  0  0  0  0  0  0  0  0
    9.2770    2.2460   25.6280 C   0  0  0  0  0  0  0  0  0  0  0  0
   10.1390    5.2990   24.5220 C   0  0  0  0  0  0  0  0  0  0  0  0
   10.3920    6.6400   24.5910 C   0  0  0  0  0  0  0  0  0  0  0  0
   11.4940    7.2050   23.9370 C   0  0  0  0  0  0  0  0  0  0  0  0
   12.3760    6.4450   23.1730 O   0  5  0  0  0  0  0  0  0  0  0  0
   11.7500    8.5590   24.0100 C   0  0  0  0  0  0  0  0  0  0  0  0
   10.9160    9.3940   24.7860 C   0  0  0  0  0  0  0  0  0  0  0  0
    9.8310    8.8620   25.4500 C   0  0  0  0  0  0  0  0  0  0  0  0
    9.5700    7.4920   25.3600 C   0  0  0  0  0  0  0  0  0  0  0  0
   12.8640    9.0020   23.3090 O   0  0  0  0  0  0  0  0  0  0  0  0
   13.8060    9.8740   23.9380 C   0  0  0  0  0  0  0  0  0  0  0  0
   13.6470   11.2620   23.3200 C   0  0  0  0  0  0  0  0  0  0  0  0
   14.8540   11.4810   22.4290 C   0  0  0  0  0  0  0  0  0  0  0  0
   15.8920   10.4250   22.7730 C   0  0  0  0  0  0  0  0  0  0  0  0
   15.1700    9.3420   23.5550 C   0  0  0  0  0  0  0  0  0  0  0  0
    8.8520   -0.1470   25.5210 C   0  0  0  0  0  0  0  0  0  0  0  0
    8.8790   -0.2480   26.8250 N   0  3  0  0  0  0  0  0  0  0  0  0
    8.4400   -1.1630   24.7900 N   0  0  0  0  0  0  0  0  0  0  0  0
    9.3781    0.2064   22.9050 H   0  0  0  0  0  0  0  0  0  0  0  0
   10.1523    2.3120   21.8240 H   0  0  0  0  0  0  0  0  0  0  0  0
   10.4835    5.0205   22.4791 H   0  0  0  0  0  0  0  0  0  0  0  0
    9.0197    2.2606   26.6974 H   0  0  0  0  0  0  0  0  0  0  0  0
   11.1323   10.4699   24.8607 H   0  0  0  0  0  0  0  0  0  0  0  0
    9.1746    9.5121   26.0471 H   0  0  0  0  0  0  0  0  0  0  0  0
    8.7085    7.0699   25.8981 H   0  0  0  0  0  0  0  0  0  0  0  0
   13.6687    9.9266   25.0281 H   0  0  0  0  0  0  0  0  0  0  0  0
   12.7228   11.3089   22.7253 H   0  0  0  0  0  0  0  0  0  0  0  0
   13.5825   12.0372   24.0977 H   0  0  0  0  0  0  0  0  0  0  0  0
   14.5604   11.3854   21.3732 H   0  0  0  0  0  0  0  0  0  0  0  0
   15.2674   12.4880   22.5876 H   0  0  0  0  0  0  0  0  0  0  0  0
   16.3240   10.0042   21.8531 H   0  0  0  0  0  0  0  0  0  0  0  0
   16.7151   10.8562   23.3618 H   0  0  0  0  0  0  0  0  0  0  0  0
   15.0586    8.4425   22.9317 H   0  0  0  0  0  0  0  0  0  0  0  0
   15.7426    9.0736   24.4551 H   0  0  0  0  0  0  0  0  0  0  0  0
    8.6075   -1.1319   27.2788 H   0  0  0  0  0  0  0  0  0  0  0  0
    9.1717    0.5564   27.3979 H   0  0  0  0  0  0  0  0  0  0  0  0
    8.1684   -2.0471   25.2434 H   0  0  0  0  0  0  0  0  0  0  0  0
    8.3895   -1.0731   23.7652 H   0  0  0  0  0  0  0  0  0  0  0  0
  2  1  2  0  0  0  0
  2 26  1  0  0  0  0
  3  2  1  0  0  0  0
  3 27  1  0  0  0  0
  4 28  1  0  0  0  0
  5  4  1  0  0  0  0
  5  3  2  0  0  0  0
  7  6  1  0  0  0  0
  7  5  1  0  0  0  0
  8  7  2  0  0  0  0
  8  1  1  0  0  0  0
  8 29  1  0  0  0  0
  9  6  2  0  0  0  0
  9  4  1  0  0  0  0
 10  9  1  0  0  0  0
 11 10  2  0  0  0  0
 12 11  1  0  0  0  0
 13 11  1  0  0  0  0
 14 13  2  0  0  0  0
 14 30  1  0  0  0  0
 15 14  1  0  0  0  0
 15 31  1  0  0  0  0
 16 15  2  0  0  0  0
 16 10  1  0  0  0  0
 16 32  1  0  0  0  0
 17 13  1  0  0  0  0
 18 17  1  0  0  0  0
 18 33  1  0  0  0  0
 19 18  1  0  0  0  0
 19 34  1  0  0  0  0
 19 35  1  0  0  0  0
 20 19  1  0  0  0  0
 20 36  1  0  0  0  0
 20 37  1  0  0  0  0
 21 20  1  0  0  0  0
 21 38  1  0  0  0  0
 21 39  1  0  0  0  0
 22 21  1  0  0  0  0
 22 18  1  0  0  0  0
 22 40  1  0  0  0  0
 22 41  1  0  0  0  0
 23  1  1  0  0  0  0
 24 23  2  0  0  0  0
 24 42  1  0  0  0  0
 24 43  1  0  0  0  0
 25 23  1  0  0  0  0
 25 44  1  0  0  0  0
 25 45  1  0  0  0  0
M  CHG  2  12  -1  24   1
M  END
$$$$
