@<TRIPOS>MOLECULE
694
 30 31 0 0 0
SMALL
GASTEIGER

@<TRIPOS>ATOM
      1 S          44.9130   14.3310   -1.6190 S.2     1  UNL1       -0.0770
      2 C          45.2990   12.8050   -0.9120 C.ar    1  UNL1        0.0377
      3 C          45.2290   12.9000    0.4830 C.ar    1  UNL1        0.0751
      4 C          44.8610   14.2130    0.9570 C.ar    1  UNL1        0.1569
      5 C          44.6760   15.0980   -0.1040 C.ar    1  UNL1        0.1393
      6 BR         45.5700   11.4760    1.6880 Br      1  UNL1       -0.0453
      7 C          45.6340   11.6540   -1.8080 C.ar    1  UNL1       -0.0099
      8 C          46.9000   11.5770   -2.5000 C.ar    1  UNL1       -0.0501
      9 C          47.2130   10.4810   -3.3460 C.ar    1  UNL1       -0.0196
     10 C          46.2640    9.4460   -3.5200 C.ar    1  UNL1        0.1169
     11 C          45.0070    9.4940   -2.8530 C.ar    1  UNL1       -0.0196
     12 O          46.5380    8.3780   -4.3330 O.3     1  UNL1       -0.5068
     13 C          44.6940   10.5930   -2.0020 C.ar    1  UNL1       -0.0501
     14 C          44.3230   16.6290    0.0010 C.2     1  UNL1        0.3471
     15 O          43.2240   16.9460    0.5640 O.2     1  UNL1       -0.2444
     16 O          45.1770   17.4270   -0.4900 O.3     1  UNL1       -0.4767
     17 O          44.7170   14.5800    2.2880 O.3     1  UNL1       -0.4783
     18 C          45.9840   14.8640    2.9480 C.3     1  UNL1        0.1858
     19 C          45.7260   15.0200    4.4570 C.2     1  UNL1        0.3427
     20 O          44.5630   15.3860    4.7880 O.2     1  UNL1       -0.2472
     21 O          46.7190   14.7670    5.1900 O.3     1  UNL1       -0.4783
     22 H          47.6360   12.3839   -2.3686 H       1  UNL1        0.0625
     23 H          48.1838   10.4367   -3.8613 H       1  UNL1        0.0654
     24 H          44.2777    8.6828   -2.9947 H       1  UNL1        0.0654
     25 H          45.8675    7.6588   -4.4483 H       1  UNL1        0.2921
     26 H          43.7212   10.6260   -1.4897 H       1  UNL1        0.0625
     27 H          45.0178   18.4036   -0.4577 H       1  UNL1        0.2954
     28 H          46.6859   14.0348    2.7756 H       1  UNL1        0.0815
     29 H          46.4201   15.7892    2.5432 H       1  UNL1        0.0815
     30 H          46.6400   14.8425    6.1739 H       1  UNL1        0.2952
@<TRIPOS>BOND
     1     2     1   ar
     2     3     2   ar
     3     4     3   ar
     4     5     4   ar
     5     5     1   ar
     6     6     3    1
     7     7     2    1
     8     8     7   ar
     9     9     8   ar
    10    10     9   ar
    11    11    10   ar
    12    12    10    1
    13    13    11   ar
    14    13     7   ar
    15    14     5    1
    16    15    14    2
    17    16    14    1
    18    17     4    1
    19    18    17    1
    20    19    18    1
    21    20    19    2
    22    21    19    1
    23     8    22    1
    24     9    23    1
    25    11    24    1
    26    12    25    1
    27    13    26    1
    28    16    27    1
    29    18    28    1
    30    18    29    1
    31    21    30    1
