694
 OpenBabel11042216533D

 30 31  0  0  0  0  0  0  0  0999 V2000
   44.9130   14.3310   -1.6190 S   0  0  0  0  0  0  0  0  0  0  0  0
   45.2990   12.8050   -0.9120 C   0  0  0  0  0  0  0  0  0  0  0  0
   45.2290   12.9000    0.4830 C   0  0  0  0  0  0  0  0  0  0  0  0
   44.8610   14.2130    0.9570 C   0  0  0  0  0  0  0  0  0  0  0  0
   44.6760   15.0980   -0.1040 C   0  0  0  0  0  0  0  0  0  0  0  0
   45.5700   11.4760    1.6880 Br  0  0  0  0  0  0  0  0  0  0  0  0
   45.6340   11.6540   -1.8080 C   0  0  0  0  0  0  0  0  0  0  0  0
   46.9000   11.5770   -2.5000 C   0  0  0  0  0  0  0  0  0  0  0  0
   47.2130   10.4810   -3.3460 C   0  0  0  0  0  0  0  0  0  0  0  0
   46.2640    9.4460   -3.5200 C   0  0  0  0  0  0  0  0  0  0  0  0
   45.0070    9.4940   -2.8530 C   0  0  0  0  0  0  0  0  0  0  0  0
   46.5380    8.3780   -4.3330 O   0  0  0  0  0  0  0  0  0  0  0  0
   44.6940   10.5930   -2.0020 C   0  0  0  0  0  0  0  0  0  0  0  0
   44.3230   16.6290    0.0010 C   0  0  0  0  0  0  0  0  0  0  0  0
   43.2240   16.9460    0.5640 O   0  0  0  0  0  0  0  0  0  0  0  0
   45.1770   17.4270   -0.4900 O   0  0  0  0  0  0  0  0  0  0  0  0
   44.7170   14.5800    2.2880 O   0  0  0  0  0  0  0  0  0  0  0  0
   45.9840   14.8640    2.9480 C   0  0  0  0  0  0  0  0  0  0  0  0
   45.7260   15.0200    4.4570 C   0  0  0  0  0  0  0  0  0  0  0  0
   44.5630   15.3860    4.7880 O   0  0  0  0  0  0  0  0  0  0  0  0
   46.7190   14.7670    5.1900 O   0  0  0  0  0  0  0  0  0  0  0  0
   47.6360   12.3839   -2.3686 H   0  0  0  0  0  0  0  0  0  0  0  0
   48.1838   10.4367   -3.8613 H   0  0  0  0  0  0  0  0  0  0  0  0
   44.2777    8.6828   -2.9947 H   0  0  0  0  0  0  0  0  0  0  0  0
   45.8675    7.6588   -4.4483 H   0  0  0  0  0  0  0  0  0  0  0  0
   43.7212   10.6260   -1.4897 H   0  0  0  0  0  0  0  0  0  0  0  0
   45.0178   18.4036   -0.4577 H   0  0  0  0  0  0  0  0  0  0  0  0
   46.6859   14.0348    2.7756 H   0  0  0  0  0  0  0  0  0  0  0  0
   46.4201   15.7892    2.5432 H   0  0  0  0  0  0  0  0  0  0  0  0
   46.6400   14.8425    6.1739 H   0  0  0  0  0  0  0  0  0  0  0  0
  2  1  1  0  0  0  0
  3  2  2  0  0  0  0
  4  3  1  0  0  0  0
  5  4  2  0  0  0  0
  5  1  1  0  0  0  0
  6  3  1  0  0  0  0
  7  2  1  0  0  0  0
  8  7  2  0  0  0  0
  8 22  1  0  0  0  0
  9  8  1  0  0  0  0
  9 23  1  0  0  0  0
 10  9  2  0  0  0  0
 11 10  1  0  0  0  0
 11 24  1  0  0  0  0
 12 10  1  0  0  0  0
 12 25  1  0  0  0  0
 13 11  2  0  0  0  0
 13  7  1  0  0  0  0
 13 26  1  0  0  0  0
 14  5  1  0  0  0  0
 15 14  2  0  0  0  0
 16 14  1  0  0  0  0
 16 27  1  0  0  0  0
 17  4  1  0  0  0  0
 18 17  1  0  0  0  0
 18 28  1  0  0  0  0
 18 29  1  0  0  0  0
 19 18  1  0  0  0  0
 20 19  2  0  0  0  0
 21 19  1  0  0  0  0
 21 30  1  0  0  0  0
M  END
$$$$
