@<TRIPOS>MOLECULE
LI2
 58 62 0 0 0
SMALL
GASTEIGER

@<TRIPOS>ATOM
      1 C          -4.8890    9.4100   25.3560 C.ar    1  UNL1        0.0344
      2 C          -5.8700    9.4810   24.3520 C.ar    1  UNL1       -0.0385
      3 C          -6.6180   10.6260   24.1400 C.ar    1  UNL1       -0.0360
      4 C          -6.3910   11.7470   24.9230 C.ar    1  UNL1        0.0468
      5 N          -6.9630   13.0020   24.9640 N.ar    1  UNL1       -0.3604
      6 C          -6.3630   13.7400   25.9570 C.ar    1  UNL1        0.0059
      7 C          -5.4110   13.0070   26.5700 C.ar    1  UNL1       -0.0220
      8 C          -5.4030   11.6890   25.9320 C.ar    1  UNL1        0.0046
      9 C          -4.6420   10.5220   26.1390 C.ar    1  UNL1       -0.0310
     10 N          -4.1620    8.2140   25.5160 N.am    1  UNL1       -0.2815
     11 C          -4.5220    7.1530   26.2950 C.2     1  UNL1        0.2484
     12 O          -5.5450    7.1100   26.9570 O.2     1  UNL1       -0.2699
     13 C          -3.6450    5.9510   26.2760 C.ar    1  UNL1        0.0415
     14 C          -3.1680    5.4670   25.0490 C.ar    1  UNL1       -0.0284
     15 C          -2.3390    4.3410   24.9660 C.ar    1  UNL1        0.0333
     16 C          -1.9630    3.7530   26.1780 C.ar    1  UNL1       -0.0054
     17 C          -2.4330    4.2230   27.3990 C.ar    1  UNL1        0.1259
     18 C          -3.2730    5.3210   27.4630 C.ar    1  UNL1       -0.0142
     19 F          -2.0730    3.6100   28.5450 F       1  UNL1       -0.2054
     20 N          -1.8320    3.8770   23.7120 N.pl3   1  UNL1       -0.3254
     21 C          -2.8200    3.2760   22.7990 C.3     1  UNL1        0.0357
     22 C          -2.2040    3.1540   21.4080 C.3     1  UNL1        0.0634
     23 O          -1.0550    2.2920   21.4700 O.3     1  UNL1       -0.3767
     24 C          -0.0630    2.8920   22.3080 C.3     1  UNL1        0.0634
     25 C          -0.5910    3.0700   23.7360 C.3     1  UNL1        0.0357
     26 C          -4.5220   13.4340   27.7130 C.3     1  UNL1       -0.0217
     27 C          -5.3790   13.8450   28.9110 C.3     1  UNL1       -0.0235
     28 C          -5.6330   12.6800   29.8360 C.ar    1  UNL1       -0.0442
     29 C          -6.7580   11.8710   29.6940 C.ar    1  UNL1       -0.0404
     30 C          -6.9490   10.8110   30.5700 C.ar    1  UNL1        0.0278
     31 N          -6.0810   10.5690   31.5450 N.ar    1  UNL1       -0.2632
     32 C          -5.0050   11.3180   31.7070 C.ar    1  UNL1        0.0278
     33 C          -4.7460   12.3920   30.8700 C.ar    1  UNL1       -0.0404
     34 H          -6.0484    8.6011   23.7164 H       1  UNL1        0.0637
     35 H          -7.3881   10.6463   23.3548 H       1  UNL1        0.0639
     36 H          -7.7194   13.3334   24.3484 H       1  UNL1        0.1653
     37 H          -6.6219   14.7777   26.2142 H       1  UNL1        0.0810
     38 H          -3.8614   10.4959   26.9136 H       1  UNL1        0.0643
     39 H          -3.2762    8.1328   24.9966 H       1  UNL1        0.1551
     40 H          -3.4538    5.9878   24.1232 H       1  UNL1        0.0644
     41 H          -1.2758    2.8942   26.1647 H       1  UNL1        0.0665
     42 H          -3.6403    5.6898   28.4321 H       1  UNL1        0.0654
     43 H          -3.1017    2.2780   23.1661 H       1  UNL1        0.0486
     44 H          -3.7170    3.9111   22.7530 H       1  UNL1        0.0486
     45 H          -2.9446    2.7294   20.7143 H       1  UNL1        0.0575
     46 H          -1.8988    4.1491   21.0521 H       1  UNL1        0.0575
     47 H           0.8277    2.2470   22.3308 H       1  UNL1        0.0575
     48 H           0.1908    3.8816   21.9003 H       1  UNL1        0.0575
     49 H          -0.8049    2.0832   24.1725 H       1  UNL1        0.0486
     50 H           0.1674    3.5859   24.3432 H       1  UNL1        0.0486
     51 H          -3.8699   12.5963   28.0009 H       1  UNL1        0.0317
     52 H          -3.9082   14.2897   27.3953 H       1  UNL1        0.0317
     53 H          -4.8573   14.6368   29.4686 H       1  UNL1        0.0316
     54 H          -6.3482   14.2040   28.5346 H       1  UNL1        0.0316
     55 H          -7.4880   12.0701   28.8956 H       1  UNL1        0.0635
     56 H          -7.8307   10.1634   30.4548 H       1  UNL1        0.0829
     57 H          -4.3021   11.0852   32.5205 H       1  UNL1        0.0829
     58 H          -3.8490   13.0105   31.0210 H       1  UNL1        0.0635
@<TRIPOS>BOND
     1     2     1   ar
     2     3     2   ar
     3     4     3   ar
     4     5     4   ar
     5     6     5   ar
     6     7     6   ar
     7     8     4   ar
     8     8     7   ar
     9     9     1   ar
    10     9     8   ar
    11    10     1    1
    12    11    10   am
    13    12    11    2
    14    13    11    1
    15    14    13   ar
    16    15    14   ar
    17    16    15   ar
    18    17    16   ar
    19    18    17   ar
    20    18    13   ar
    21    19    17    1
    22    20    15    1
    23    21    20    1
    24    22    21    1
    25    23    22    1
    26    24    23    1
    27    25    24    1
    28    25    20    1
    29    26     7    1
    30    27    26    1
    31    28    27    1
    32    29    28   ar
    33    30    29   ar
    34    31    30   ar
    35    32    31   ar
    36    33    28   ar
    37    33    32   ar
    38     2    34    1
    39     3    35    1
    40     5    36    1
    41     6    37    1
    42     9    38    1
    43    10    39    1
    44    14    40    1
    45    16    41    1
    46    18    42    1
    47    21    43    1
    48    21    44    1
    49    22    45    1
    50    22    46    1
    51    24    47    1
    52    24    48    1
    53    25    49    1
    54    25    50    1
    55    26    51    1
    56    26    52    1
    57    27    53    1
    58    27    54    1
    59    29    55    1
    60    30    56    1
    61    32    57    1
    62    33    58    1
