@<TRIPOS>MOLECULE
DRJ
 69 71 0 0 0
SMALL
GASTEIGER

@<TRIPOS>ATOM
      1 N           3.5790   -3.8720   41.2360 N.pl3   1  UNL1       -0.2847
      2 C           4.8600   -3.8460   41.9670 C.3     1  UNL1        0.0163
      3 C           5.6960   -5.0810   41.6210 C.3     1  UNL1       -0.0371
      4 C           6.6860   -4.8290   40.4810 C.3     1  UNL1       -0.0516
      5 C           7.0310   -3.3360   40.4190 C.3     1  UNL1       -0.0530
      6 C           8.3440   -3.0910   39.6680 C.3     1  UNL1       -0.0533
      7 C           8.4200   -1.6240   39.2290 C.3     1  UNL1       -0.0559
      8 C           7.1270   -1.1870   38.5370 C.3     1  UNL1       -0.0653
      9 C           2.7140   -5.0550   41.2990 C.3     1  UNL1        0.0202
     10 C           1.9080   -5.0310   42.6010 C.3     1  UNL1       -0.0118
     11 C           2.5820   -5.9330   43.6330 C.ar    1  UNL1       -0.0457
     12 C           2.9230   -7.2340   43.2840 C.ar    1  UNL1       -0.0551
     13 C           3.6510   -8.0260   44.1700 C.ar    1  UNL1       -0.0196
     14 C           4.0380   -7.5170   45.4060 C.ar    1  UNL1        0.1221
     15 C           3.6760   -6.2170   45.7600 C.ar    1  UNL1       -0.0196
     16 C           2.9490   -5.4250   44.8780 C.ar    1  UNL1       -0.0551
     17 O           4.7760   -8.3090   46.2350 O.3     1  UNL1       -0.4748
     18 C           6.2080   -8.2280   46.2410 C.3     1  UNL1        0.2028
     19 C           6.6550   -6.9040   46.8690 C.3     1  UNL1       -0.0143
     20 C           6.6730   -8.3170   44.7840 C.3     1  UNL1       -0.0054
     21 C           7.3860   -7.0520   44.2960 C.3     1  UNL1       -0.0611
     22 C           6.7980   -9.4120   47.0130 C.2     1  UNL1        0.3487
     23 O           8.0390   -9.5530   46.9990 O.2     1  UNL1       -0.2465
     24 O           5.9840  -10.1520   47.6100 O.3     1  UNL1       -0.4779
     25 C           3.1360   -2.8350   40.5370 C.ar    1  UNL1        0.2911
     26 N           1.9020   -2.6270   40.0940 N.ar    1  UNL1       -0.1953
     27 C           1.8900   -1.4880   39.3990 C.ar    1  UNL1        0.1112
     28 C           0.8840   -0.8090   38.7340 C.ar    1  UNL1       -0.0325
     29 C           3.1820   -0.9610   39.4070 C.ar    1  UNL1        0.1570
     30 C           1.1620    0.3930   38.0750 C.ar    1  UNL1       -0.0595
     31 C           2.4470    0.9130   38.0850 C.ar    1  UNL1       -0.0582
     32 C           3.4640    0.2300   38.7570 C.ar    1  UNL1       -0.0171
     33 O           3.9560   -1.8210   40.1310 O.2     1  UNL1       -0.4244
     34 H           5.4184   -2.9403   41.6880 H       1  UNL1        0.0465
     35 H           4.6546   -3.8450   43.0477 H       1  UNL1        0.0465
     36 H           6.2601   -5.3849   42.5151 H       1  UNL1        0.0280
     37 H           5.0022   -5.8671   41.2883 H       1  UNL1        0.0280
     38 H           7.6034   -5.4096   40.6579 H       1  UNL1        0.0266
     39 H           6.2320   -5.1386   39.5281 H       1  UNL1        0.0266
     40 H           6.2193   -2.8033   39.9020 H       1  UNL1        0.0265
     41 H           7.1497   -2.9673   41.4486 H       1  UNL1        0.0265
     42 H           9.1923   -3.3194   40.3299 H       1  UNL1        0.0265
     43 H           8.3837   -3.7401   38.7808 H       1  UNL1        0.0265
     44 H           8.5845   -0.9924   40.1144 H       1  UNL1        0.0263
     45 H           9.2509   -1.5158   38.5163 H       1  UNL1        0.0263
     46 H           6.3729   -0.9321   39.2962 H       1  UNL1        0.0230
     47 H           7.3269   -0.3065   37.9087 H       1  UNL1        0.0230
     48 H           6.7518   -2.0082   37.9087 H       1  UNL1        0.0230
     49 H           2.0251   -5.0513   40.4415 H       1  UNL1        0.0468
     50 H           3.3334   -5.9635   41.2686 H       1  UNL1        0.0468
     51 H           1.8643   -4.0016   42.9864 H       1  UNL1        0.0328
     52 H           0.8876   -5.3934   42.4076 H       1  UNL1        0.0328
     53 H           2.6182   -7.6391   42.3078 H       1  UNL1        0.0621
     54 H           3.9203   -9.0556   43.8917 H       1  UNL1        0.0654
     55 H           3.9672   -5.8163   46.7422 H       1  UNL1        0.0654
     56 H           2.6645   -4.4011   45.1619 H       1  UNL1        0.0621
     57 H           6.6260   -6.9899   47.9653 H       1  UNL1        0.0274
     58 H           7.6809   -6.6730   46.5463 H       1  UNL1        0.0274
     59 H           5.9790   -6.0984   46.5463 H       1  UNL1        0.0274
     60 H           7.3658   -9.1663   44.6901 H       1  UNL1        0.0306
     61 H           5.7741   -8.4439   44.1628 H       1  UNL1        0.0306
     62 H           7.7189   -6.4614   45.1623 H       1  UNL1        0.0231
     63 H           8.2580   -7.3341   43.6877 H       1  UNL1        0.0231
     64 H           6.6931   -6.4521   43.6877 H       1  UNL1        0.0231
     65 H           6.3098  -10.9323   48.1249 H       1  UNL1        0.2952
     66 H          -0.1379   -1.2161   38.7237 H       1  UNL1        0.0640
     67 H           0.3584    0.9274   37.5471 H       1  UNL1        0.0618
     68 H           2.6649    1.8584   37.5666 H       1  UNL1        0.0619
     69 H           4.4860    0.6367   38.7701 H       1  UNL1        0.0655
@<TRIPOS>BOND
     1     2     1    1
     2     3     2    1
     3     4     3    1
     4     5     4    1
     5     6     5    1
     6     7     6    1
     7     8     7    1
     8     9     1    1
     9    10     9    1
    10    11    10    1
    11    12    11   ar
    12    13    12   ar
    13    14    13   ar
    14    15    14   ar
    15    16    15   ar
    16    16    11   ar
    17    17    14    1
    18    18    17    1
    19    19    18    1
    20    20    18    1
    21    21    20    1
    22    22    18    1
    23    23    22    2
    24    24    22    1
    25    25     1    1
    26    26    25   ar
    27    27    26   ar
    28    28    27   ar
    29    29    27   ar
    30    30    28   ar
    31    31    30   ar
    32    32    31   ar
    33    32    29   ar
    34    33    29   ar
    35    33    25   ar
    36     2    34    1
    37     2    35    1
    38     3    36    1
    39     3    37    1
    40     4    38    1
    41     4    39    1
    42     5    40    1
    43     5    41    1
    44     6    42    1
    45     6    43    1
    46     7    44    1
    47     7    45    1
    48     8    46    1
    49     8    47    1
    50     8    48    1
    51     9    49    1
    52     9    50    1
    53    10    51    1
    54    10    52    1
    55    12    53    1
    56    13    54    1
    57    15    55    1
    58    16    56    1
    59    19    57    1
    60    19    58    1
    61    19    59    1
    62    20    60    1
    63    20    61    1
    64    21    62    1
    65    21    63    1
    66    21    64    1
    67    24    65    1
    68    28    66    1
    69    30    67    1
    70    31    68    1
    71    32    69    1
