76A
  -OEChem-02242319223D

 62 67  0     0  0  0  0  0  0999 V2000
   15.2320   -0.7560    3.6240 O   0  0  0  0  0  0  0  0  0  0  0  0
   11.3630   -1.7010    4.7940 C   0  0  0  0  0  0  0  0  0  0  0  0
   12.4480   -2.1370    5.5550 C   0  0  0  0  0  0  0  0  0  0  0  0
   13.7480   -1.8190    5.1610 C   0  0  0  0  0  0  0  0  0  0  0  0
   13.9630   -1.0660    4.0070 C   0  0  0  0  0  0  0  0  0  0  0  0
   12.8780   -0.6300    3.2470 C   0  0  0  0  0  0  0  0  0  0  0  0
   11.5780   -0.9470    3.6400 C   0  0  0  0  0  0  0  0  0  0  0  0
    7.4150   -2.6610    5.9870 C   0  0  0  0  0  0  0  0  0  0  0  0
    8.4150   -2.5120    6.9470 C   0  0  0  0  0  0  0  0  0  0  0  0
    9.7150   -2.1950    6.5540 C   0  0  0  0  0  0  0  0  0  0  0  0
   10.0140   -2.0290    5.2010 C   0  0  0  0  0  0  0  0  0  0  0  0
    9.0130   -2.1790    4.2420 C   0  0  0  0  0  0  0  0  0  0  0  0
    7.7120   -2.4960    4.6350 C   0  0  0  0  0  0  0  0  0  0  0  0
    6.0740   -2.9860    6.3920 C   0  0  0  0  0  0  0  0  0  0  0  0
    5.8470   -3.7120    7.5040 N   0  0  0  0  0  0  0  0  0  0  0  0
    4.4940   -3.8120    7.5610 N   0  0  0  0  0  0  0  0  0  0  0  0
    3.9060   -3.1780    6.5310 C   0  0  0  0  0  0  0  0  0  0  0  0
    4.8870   -2.6310    5.7520 C   0  0  0  0  0  0  0  0  0  0  0  0
    2.6180   -2.8990    6.0040 C   0  0  0  0  0  0  0  0  0  0  0  0
    2.8690   -2.1320    4.8310 C   0  0  0  0  0  0  0  0  0  0  0  0
    4.3680   -1.8930    4.5670 C   0  0  0  0  0  0  0  0  0  0  0  0
    1.3490   -3.2270    6.4240 C   0  0  0  0  0  0  0  0  0  0  0  0
    0.2860   -2.7720    5.6400 C   0  0  0  0  0  0  0  0  0  0  0  0
    0.5370   -2.0210    4.4910 C   0  0  0  0  0  0  0  0  0  0  0  0
    1.8090   -1.6860    4.0610 C   0  0  0  0  0  0  0  0  0  0  0  0
   -0.6240   -1.5580    3.6880 C   0  0  0  0  0  0  0  0  0  0  0  0
   -0.4250   -0.4010    2.9520 N   0  0  0  0  0  0  0  0  0  0  0  0
   -1.6750   -2.1910    3.7310 O   0  0  0  0  0  0  0  0  0  0  0  0
   -1.4640    0.1880    2.1410 C   0  0  0  0  0  0  0  0  0  0  0  0
   -0.8610    0.8770    0.9140 C   0  0  0  0  0  0  0  0  0  0  0  0
   -1.9340    1.5540    0.0670 C   0  0  0  0  0  0  0  0  0  0  0  0
   -2.7770    2.5230    0.8940 C   0  0  0  0  0  0  0  0  0  0  0  0
   -3.3810    1.8340    2.1160 C   0  0  0  0  0  0  0  0  0  0  0  0
   -2.3110    1.1590    2.9680 C   0  0  0  0  0  0  0  0  0  0  0  0
   -3.8350    3.0400    0.0940 O   0  0  0  0  0  0  0  0  0  0  0  0
   -3.4910    3.1100   -0.8100 H   0  0  0  0  0  0  0  0  0  0  0  0
   -2.1610    3.3710    1.2140 H   0  0  0  0  0  0  0  0  0  0  0  0
   -4.1240    1.0930    1.7940 H   0  0  0  0  0  0  0  0  0  0  0  0
   -3.9360    2.5650    2.7170 H   0  0  0  0  0  0  0  0  0  0  0  0
   -1.6680    1.9250    3.4210 H   0  0  0  0  0  0  0  0  0  0  0  0
   -2.7880    0.6260    3.7990 H   0  0  0  0  0  0  0  0  0  0  0  0
   -2.0950   -0.6450    1.8100 H   0  0  0  0  0  0  0  0  0  0  0  0
   -0.3170    0.1470    0.3030 H   0  0  0  0  0  0  0  0  0  0  0  0
   -0.1230    1.6250    1.2320 H   0  0  0  0  0  0  0  0  0  0  0  0
   -1.4700    2.0900   -0.7700 H   0  0  0  0  0  0  0  0  0  0  0  0
   -2.5830    0.7960   -0.3900 H   0  0  0  0  0  0  0  0  0  0  0  0
    0.4530    0.1040    3.0150 H   0  0  0  0  0  0  0  0  0  0  0  0
   -0.7310   -3.0130    5.9410 H   0  0  0  0  0  0  0  0  0  0  0  0
    1.1710   -3.8120    7.3180 H   0  0  0  0  0  0  0  0  0  0  0  0
    1.9850   -1.1000    3.1650 H   0  0  0  0  0  0  0  0  0  0  0  0
    4.6770   -2.3530    3.6260 H   0  0  0  0  0  0  0  0  0  0  0  0
    4.6070   -0.8270    4.6060 H   0  0  0  0  0  0  0  0  0  0  0  0
    4.0760   -4.3240    8.3290 H   0  0  0  0  0  0  0  0  0  0  0  0
    6.9430   -2.6090    3.8750 H   0  0  0  0  0  0  0  0  0  0  0  0
    9.2300   -2.0530    3.1840 H   0  0  0  0  0  0  0  0  0  0  0  0
   10.4850   -2.0810    7.3130 H   0  0  0  0  0  0  0  0  0  0  0  0
    8.1980   -2.6380    8.0050 H   0  0  0  0  0  0  0  0  0  0  0  0
   10.7430   -0.6000    3.0360 H   0  0  0  0  0  0  0  0  0  0  0  0
   13.0400   -0.0430    2.3470 H   0  0  0  0  0  0  0  0  0  0  0  0
   15.3360    0.2060    3.5530 H   0  0  0  0  0  0  0  0  0  0  0  0
   14.5890   -2.1620    5.7570 H   0  0  0  0  0  0  0  0  0  0  0  0
   12.2960   -2.7260    6.4560 H   0  0  0  0  0  0  0  0  0  0  0  0
  1  5  1  0  0  0  0
  1 60  1  0  0  0  0
  2 11  1  0  0  0  0
  2  7  2  0  0  0  0
  2  3  1  0  0  0  0
  3  4  2  0  0  0  0
  3 62  1  0  0  0  0
  4  5  1  0  0  0  0
  4 61  1  0  0  0  0
  5  6  2  0  0  0  0
  6  7  1  0  0  0  0
  6 59  1  0  0  0  0
  7 58  1  0  0  0  0
  8 14  1  0  0  0  0
  8 13  1  0  0  0  0
  8  9  2  0  0  0  0
  9 10  1  0  0  0  0
  9 57  1  0  0  0  0
 10 11  2  0  0  0  0
 10 56  1  0  0  0  0
 11 12  1  0  0  0  0
 12 13  2  0  0  0  0
 12 55  1  0  0  0  0
 13 54  1  0  0  0  0
 14 18  1  0  0  0  0
 14 15  2  0  0  0  0
 15 16  1  0  0  0  0
 16 17  1  0  0  0  0
 16 53  1  0  0  0  0
 17 19  1  0  0  0  0
 17 18  2  0  0  0  0
 18 21  1  0  0  0  0
 19 22  1  0  0  0  0
 19 20  2  0  0  0  0
 20 25  1  0  0  0  0
 20 21  1  0  0  0  0
 21 51  1  0  0  0  0
 21 52  1  0  0  0  0
 22 23  2  0  0  0  0
 22 49  1  0  0  0  0
 23 24  1  0  0  0  0
 23 48  1  0  0  0  0
 24 26  1  0  0  0  0
 24 25  2  0  0  0  0
 25 50  1  0  0  0  0
 26 27  1  0  0  0  0
 26 28  2  0  0  0  0
 27 29  1  0  0  0  0
 27 47  1  0  0  0  0
 29 34  1  0  0  0  0
 29 30  1  0  0  0  0
 29 42  1  0  0  0  0
 30 31  1  0  0  0  0
 30 43  1  0  0  0  0
 30 44  1  0  0  0  0
 31 32  1  0  0  0  0
 31 45  1  0  0  0  0
 31 46  1  0  0  0  0
 32 35  1  0  0  0  0
 32 33  1  0  0  0  0
 32 37  1  0  0  0  0
 33 34  1  0  0  0  0
 33 38  1  0  0  0  0
 33 39  1  0  0  0  0
 34 40  1  0  0  0  0
 34 41  1  0  0  0  0
 35 36  1  0  0  0  0
M  END
> <OPENEYE_ISO_SMILES>
c1cc(ccc1c2ccc(cc2)O)c3c4c([nH]n3)-c5ccc(cc5C4)C(=O)NC6CCC(CC6)O

> <OPENEYE_INCHI>
InChI=1S/C29H27N3O3/c33-23-10-5-18(6-11-23)17-1-3-19(4-2-17)27-26-16-21-15-20(7-14-25(21)28(26)32-31-27)29(35)30-22-8-12-24(34)13-9-22/h1-7,10-11,14-15,22,24,33-34H,8-9,12-13,16H2,(H,30,35)(H,31,32)/t22-,24-

> <OPENEYE_INCHIKEY>
VKPCXCHYSBVEMW-HCGLCNNCSA-N

> <FORMULA>
C29H27N3O3

$$$$
