76A
  Mrv15b2303062313492D          

 36 41  0  0  0  0            999 V2000
    7.5288    2.8230    0.0000 O   0  5  0  0  0  0  0  0  0  0  0  0
    6.0349    0.8498    0.0000 C   0  0  0  0  0  0  0  0  0  0  0  0
    6.8535    0.7474    0.0000 C   0  0  0  0  0  0  0  0  0  0  0  0
    7.3515    1.4051    0.0000 C   0  0  0  0  0  0  0  0  0  0  0  0
    7.0308    2.1653    0.0000 C   0  0  0  0  0  0  0  0  0  0  0  0
    6.2122    2.2677    0.0000 C   0  0  0  0  0  0  0  0  0  0  0  0
    5.7142    1.6099    0.0000 C   0  0  0  0  0  0  0  0  0  0  0  0
    4.5409   -1.1235    0.0000 C   0  0  0  0  0  0  0  0  0  0  0  0
    5.3595   -1.2259    0.0000 C   0  0  0  0  0  0  0  0  0  0  0  0
    5.8575   -0.5681    0.0000 C   0  0  0  0  0  0  0  0  0  0  0  0
    5.5369    0.1920    0.0000 C   0  0  0  0  0  0  0  0  0  0  0  0
    4.7183    0.2944    0.0000 C   0  0  0  0  0  0  0  0  0  0  0  0
    4.2203   -0.3633    0.0000 C   0  0  0  0  0  0  0  0  0  0  0  0
    4.0429   -1.7812    0.0000 C   0  0  0  0  0  0  0  0  0  0  0  0
    4.2823   -2.5707    0.0000 N   0  0  0  0  0  0  0  0  0  0  0  0
    3.6055   -3.0424    0.0000 N   0  0  0  0  0  0  0  0  0  0  0  0
    2.9477   -2.5444    0.0000 C   0  0  0  0  0  0  0  0  0  0  0  0
    3.2181   -1.7650    0.0000 C   0  0  0  0  0  0  0  0  0  0  0  0
    2.1229   -2.5281    0.0000 C   0  0  0  0  0  0  0  0  0  0  0  0
    1.8835   -1.7386    0.0000 C   0  0  0  0  0  0  0  0  0  0  0  0
    2.5603   -1.2670    0.0000 C   0  0  0  0  0  0  0  0  0  0  0  0
    1.5589   -3.1302    0.0000 C   0  0  0  0  0  0  0  0  0  0  0  0
    0.7554   -2.9428    0.0000 C   0  0  0  0  0  0  0  0  0  0  0  0
    0.5160   -2.1533    0.0000 C   0  0  0  0  0  0  0  0  0  0  0  0
    1.0800   -1.5512    0.0000 C   0  0  0  0  0  0  0  0  0  0  0  0
   -0.2874   -1.9659    0.0000 C   0  0  0  0  0  0  0  0  0  0  0  0
   -0.5268   -1.1764    0.0000 N   0  0  0  0  0  0  0  0  0  0  0  0
   -0.8514   -2.5680    0.0000 O   0  0  0  0  0  0  0  0  0  0  0  0
   -1.3303   -0.9890    0.0000 C   0  0  2  0  0  0  0  0  0  0  0  0
   -1.5697   -0.1995    0.0000 C   0  0  0  0  0  0  0  0  0  0  0  0
   -2.3731   -0.0121    0.0000 C   0  0  0  0  0  0  0  0  0  0  0  0
   -2.9371   -0.6142    0.0000 C   0  0  2  0  0  0  0  0  0  0  0  0
   -2.6977   -1.4037    0.0000 C   0  0  0  0  0  0  0  0  0  0  0  0
   -1.8943   -1.5911    0.0000 C   0  0  0  0  0  0  0  0  0  0  0  0
   -3.7406   -0.4268    0.0000 O   0  0  0  0  0  0  0  0  0  0  0  0
    8.3474    2.7206    0.0000 H   0  0  0  0  0  0  0  0  0  0  0  0
  1  5  1  0  0  0  0
  1 36  1  0  0  0  0
  2 11  1  0  0  0  0
  2  7  4  0  0  0  0
  2  3  4  0  0  0  0
  3  4  4  0  0  0  0
  4  5  4  0  0  0  0
  5  6  4  0  0  0  0
  6  7  4  0  0  0  0
  8 14  1  0  0  0  0
  8 13  4  0  0  0  0
  8  9  4  0  0  0  0
  9 10  4  0  0  0  0
 10 11  4  0  0  0  0
 11 12  4  0  0  0  0
 12 13  4  0  0  0  0
 14 18  4  0  0  0  0
 14 15  4  0  0  0  0
 15 16  4  0  0  0  0
 16 17  4  0  0  0  0
 17 19  1  0  0  0  0
 17 18  4  0  0  0  0
 18 21  1  0  0  0  0
 19 22  4  0  0  0  0
 19 20  4  0  0  0  0
 20 25  4  0  0  0  0
 20 21  1  0  0  0  0
 22 23  4  0  0  0  0
 23 24  4  0  0  0  0
 24 26  1  0  0  0  0
 24 25  4  0  0  0  0
 26 27  1  0  0  0  0
 26 28  2  0  0  0  0
 29 27  1  1  0  0  0
 29 34  1  0  0  0  0
 29 30  1  0  0  0  0
 30 31  1  0  0  0  0
 31 32  1  0  0  0  0
 32 35  1  6  0  0  0
 32 33  1  0  0  0  0
 33 34  1  0  0  0  0
M  CHG  1   1  -1
M  STY  1   1 DAT
M  SAL   1  1  16
M  SDT   1 MRV_IMPLICIT_H                                        
M  SDD   1     0.0000    0.0000    DR    ALL  0       0  
M  SED   1 IMPL_H1
M  END
