@<TRIPOS>MOLECULE
76A
 62 67 0 0 0
SMALL
GASTEIGER

@<TRIPOS>ATOM
      1 O          15.2320   -0.7560    3.6240 O.3     1  LIG1       -0.5068
      2 C          11.3630   -1.7010    4.7940 C.ar    1  LIG1       -0.0177
      3 C          12.4480   -2.1370    5.5550 C.ar    1  LIG1       -0.0506
      4 C          13.7480   -1.8190    5.1610 C.ar    1  LIG1       -0.0196
      5 C          13.9630   -1.0660    4.0070 C.ar    1  LIG1        0.1169
      6 C          12.8780   -0.6300    3.2470 C.ar    1  LIG1       -0.0196
      7 C          11.5780   -0.9470    3.6400 C.ar    1  LIG1       -0.0506
      8 C           7.4150   -2.6610    5.9870 C.ar    1  LIG1        0.0024
      9 C           8.4150   -2.5120    6.9470 C.ar    1  LIG1       -0.0519
     10 C           9.7150   -2.1950    6.5540 C.ar    1  LIG1       -0.0534
     11 C          10.0140   -2.0290    5.2010 C.ar    1  LIG1       -0.0178
     12 C           9.0130   -2.1790    4.2420 C.ar    1  LIG1       -0.0534
     13 C           7.7120   -2.4960    4.6350 C.ar    1  LIG1       -0.0519
     14 C           6.0740   -2.9860    6.3920 C.ar    1  LIG1        0.0966
     15 N           5.8470   -3.7120    7.5040 N.ar    1  LIG1       -0.1730
     16 N           4.4940   -3.8120    7.5610 N.ar    1  LIG1       -0.2761
     17 C           3.9060   -3.1780    6.5310 C.ar    1  LIG1        0.0701
     18 C           4.8870   -2.6310    5.7520 C.ar    1  LIG1        0.0099
     19 C           2.6180   -2.8990    6.0040 C.ar    1  LIG1        0.0036
     20 C           2.8690   -2.1320    4.8310 C.ar    1  LIG1       -0.0331
     21 C           4.3680   -1.8930    4.5670 C.3     1  LIG1        0.0023
     22 C           1.3490   -3.2270    6.4240 C.ar    1  LIG1       -0.0516
     23 C           0.2860   -2.7720    5.6400 C.ar    1  LIG1       -0.0490
     24 C           0.5370   -2.0210    4.4910 C.ar    1  LIG1        0.0370
     25 C           1.8090   -1.6860    4.0610 C.ar    1  LIG1       -0.0455
     26 C          -0.6240   -1.5580    3.6880 C.2     1  LIG1        0.2443
     27 N          -0.4250   -0.4010    2.9520 N.am    1  LIG1       -0.3085
     28 O          -1.6750   -2.1910    3.7310 O.2     1  LIG1       -0.2702
     29 C          -1.4640    0.1880    2.1410 C.3     1  LIG1        0.0236
     30 C          -0.8610    0.8770    0.9140 C.3     1  LIG1       -0.0322
     31 C          -1.9340    1.5540    0.0670 C.3     1  LIG1       -0.0252
     32 C          -2.7770    2.5230    0.8940 C.3     1  LIG1        0.0554
     33 C          -3.3810    1.8340    2.1160 C.3     1  LIG1       -0.0252
     34 C          -2.3110    1.1590    2.9680 C.3     1  LIG1       -0.0322
     35 O          -3.8350    3.0400    0.0940 O.3     1  LIG1       -0.3918
     36 H          -3.4910    3.1100   -0.8100 H       1  LIG1        0.2098
     37 H          -2.1610    3.3710    1.2140 H       1  LIG1        0.0593
     38 H          -4.1240    1.0930    1.7940 H       1  LIG1        0.0291
     39 H          -3.9360    2.5650    2.7170 H       1  LIG1        0.0291
     40 H          -1.6680    1.9250    3.4210 H       1  LIG1        0.0284
     41 H          -2.7880    0.6260    3.7990 H       1  LIG1        0.0284
     42 H          -2.0950   -0.6450    1.8100 H       1  LIG1        0.0498
     43 H          -0.3170    0.1470    0.3030 H       1  LIG1        0.0284
     44 H          -0.1230    1.6250    1.2320 H       1  LIG1        0.0284
     45 H          -1.4700    2.0900   -0.7700 H       1  LIG1        0.0291
     46 H          -2.5830    0.7960   -0.3900 H       1  LIG1        0.0291
     47 H           0.4530    0.1040    3.0150 H       1  LIG1        0.1493
     48 H          -0.7310   -3.0130    5.9410 H       1  LIG1        0.0625
     49 H           1.1710   -3.8120    7.3180 H       1  LIG1        0.0624
     50 H           1.9850   -1.1000    3.1650 H       1  LIG1        0.0628
     51 H           4.6770   -2.3530    3.6260 H       1  LIG1        0.0363
     52 H           4.6070   -0.8270    4.6060 H       1  LIG1        0.0363
     53 H           4.0760   -4.3240    8.3290 H       1  LIG1        0.1889
     54 H           6.9430   -2.6090    3.8750 H       1  LIG1        0.0624
     55 H           9.2300   -2.0530    3.1840 H       1  LIG1        0.0624
     56 H          10.4850   -2.0810    7.3130 H       1  LIG1        0.0624
     57 H           8.1980   -2.6380    8.0050 H       1  LIG1        0.0624
     58 H          10.7430   -0.6000    3.0360 H       1  LIG1        0.0625
     59 H          13.0400   -0.0430    2.3470 H       1  LIG1        0.0654
     60 H          15.3360    0.2060    3.5530 H       1  LIG1        0.2921
     61 H          14.5890   -2.1620    5.7570 H       1  LIG1        0.0654
     62 H          12.2960   -2.7260    6.4560 H       1  LIG1        0.0625
@<TRIPOS>BOND
     1     1     5    1
     2     1    60    1
     3     2    11    1
     4     2     7   ar
     5     2     3   ar
     6     3     4   ar
     7     3    62    1
     8     4     5   ar
     9     4    61    1
    10     5     6   ar
    11     6     7   ar
    12     6    59    1
    13     7    58    1
    14     8    14    1
    15     8    13   ar
    16     8     9   ar
    17     9    10   ar
    18     9    57    1
    19    10    11   ar
    20    10    56    1
    21    11    12   ar
    22    12    13   ar
    23    12    55    1
    24    13    54    1
    25    14    18   ar
    26    14    15   ar
    27    15    16   ar
    28    16    17   ar
    29    16    53    1
    30    17    19    1
    31    17    18   ar
    32    18    21    1
    33    19    22   ar
    34    19    20   ar
    35    20    25   ar
    36    20    21    1
    37    21    51    1
    38    21    52    1
    39    22    23   ar
    40    22    49    1
    41    23    24   ar
    42    23    48    1
    43    24    26    1
    44    24    25   ar
    45    25    50    1
    46    26    27   am
    47    26    28    2
    48    27    29    1
    49    27    47    1
    50    29    34    1
    51    29    30    1
    52    29    42    1
    53    30    31    1
    54    30    43    1
    55    30    44    1
    56    31    32    1
    57    31    45    1
    58    31    46    1
    59    32    35    1
    60    32    33    1
    61    32    37    1
    62    33    34    1
    63    33    38    1
    64    33    39    1
    65    34    40    1
    66    34    41    1
    67    35    36    1
