@<TRIPOS>MOLECULE
6NH
 38 41 0 0 0
SMALL
GASTEIGER

@<TRIPOS>ATOM
      1 C          32.5780    6.6540    3.3180 C.ar    1  UNL1        0.1693
      2 C          31.2560    6.7340    3.7320 C.ar    1  UNL1        0.1730
      3 O          30.6580    7.8990    4.1710 O.3     1  UNL1       -0.5028
      4 C          30.7730    5.4220    3.6000 C.ar    1  UNL1        0.1078
      5 N          31.7210    4.5750    3.1770 N.ar    1  UNL1       -0.2726
      6 N          32.9010    5.3970    3.0150 N.ar    1  UNL1       -0.1664
      7 C          29.4680    5.0600    4.0100 C.ar    1  UNL1        0.0034
      8 C          28.8900    5.6760    5.1240 C.ar    1  UNL1       -0.0525
      9 C          27.6140    5.2950    5.5240 C.ar    1  UNL1       -0.0611
     10 C          26.9190    4.3200    4.8250 C.ar    1  UNL1       -0.0617
     11 C          27.5010    3.7070    3.7110 C.ar    1  UNL1       -0.0611
     12 C          28.7940    4.0760    3.2890 C.ar    1  UNL1       -0.0525
     13 C          33.4220    7.7930    3.2360 C.ar    1  UNL1        0.1631
     14 N          33.3280    8.5920    2.1580 N.ar    1  UNL1       -0.3365
     15 C          34.2940    9.4470    2.3980 C.ar    1  UNL1        0.0665
     16 C          34.6530   10.5000    1.5630 C.ar    1  UNL1       -0.0354
     17 C          34.9260    9.1450    3.5790 C.ar    1  UNL1        0.0903
     18 C          35.7330   11.2870    1.9610 C.ar    1  UNL1       -0.0448
     19 C          36.3950   10.9730    3.1750 C.ar    1  UNL1        0.0668
     20 C          36.0090    9.9150    4.0130 C.ar    1  UNL1       -0.0194
     21 N          34.3760    8.0630    4.1460 N.ar    1  UNL1       -0.2260
     22 C          37.5070   11.7480    3.5310 C.2     1  UNL1        0.3082
     23 N          38.2420   11.3900    4.5720 N.2     1  UNL1       -0.0994
     24 N          37.8920   12.8330    2.8140 N.pl3   1  UNL1       -0.2466
     25 H          31.1469    8.6981    4.1904 H       1  UNL1        0.2923
     26 H          31.6342    3.6082    3.0128 H       1  UNL1        0.1891
     27 H          29.4042    6.4047    5.6432 H       1  UNL1        0.0624
     28 H          27.1809    5.7414    6.3475 H       1  UNL1        0.0618
     29 H          25.9710    4.0463    5.1272 H       1  UNL1        0.0618
     30 H          26.9807    2.9803    3.1950 H       1  UNL1        0.0618
     31 H          29.2304    3.6292    2.4675 H       1  UNL1        0.0624
     32 H          32.7049    8.5475    1.3971 H       1  UNL1        0.1674
     33 H          34.1421   10.6905    0.6868 H       1  UNL1        0.0639
     34 H          36.0447   12.0830    1.3829 H       1  UNL1        0.0627
     35 H          36.4976    9.7167    4.9001 H       1  UNL1        0.0648
     36 H          37.9852   10.6063    5.1097 H       1  UNL1        0.3633
     37 H          37.3634   13.1211    2.0350 H       1  UNL1        0.2884
     38 H          38.7000   13.3325    3.0726 H       1  UNL1        0.2884
@<TRIPOS>BOND
     1     2     1   ar
     2     3     2    1
     3     4     2   ar
     4     5     4   ar
     5     6     5   ar
     6     6     1   ar
     7     7     4    1
     8     8     7   ar
     9     9     8   ar
    10    10     9   ar
    11    11    10   ar
    12    12    11   ar
    13    12     7   ar
    14    13     1    1
    15    14    13   ar
    16    15    14   ar
    17    16    15   ar
    18    17    15   ar
    19    18    16   ar
    20    19    18   ar
    21    20    17   ar
    22    20    19   ar
    23    21    17   ar
    24    21    13   ar
    25    22    19    1
    26    23    22    2
    27    24    22    1
    28     3    25    1
    29     5    26    1
    30     8    27    1
    31     9    28    1
    32    10    29    1
    33    11    30    1
    34    12    31    1
    35    14    32    1
    36    16    33    1
    37    18    34    1
    38    20    35    1
    39    23    36    1
    40    24    37    1
    41    24    38    1
