I4A
  Mrv15b2303062314262D          

 27 30  0  0  0  0            999 V2000
    2.9269   -0.2575    0.0000 O   0  0  0  0  0  0  0  0  0  0  0  0
    2.1171   -0.0998    0.0000 C   0  0  0  0  0  0  0  0  0  0  0  0
    1.5756   -0.7222    0.0000 O   0  0  0  0  0  0  0  0  0  0  0  0
    1.8488    0.6804    0.0000 C   0  0  0  0  0  0  0  0  0  0  0  0
    1.0390    0.8381    0.0000 C   0  0  0  0  0  0  0  0  0  0  0  0
    0.7708    1.6183    0.0000 C   0  0  0  0  0  0  0  0  0  0  0  0
   -0.0541    1.6042    0.0000 C   0  0  0  0  0  0  0  0  0  0  0  0
   -0.5203    2.2849    0.0000 C   0  0  0  0  0  0  0  0  0  0  0  0
   -1.3431    2.3448    0.0000 C   0  0  0  0  0  0  0  0  0  0  0  0
   -1.9030    1.7389    0.0000 C   0  0  0  0  0  0  0  0  0  0  0  0
   -1.7783    0.9233    0.0000 C   0  0  0  0  0  0  0  0  0  0  0  0
   -1.0630    0.5123    0.0000 C   0  0  0  0  0  0  0  0  0  0  0  0
   -0.2956    0.8154    0.0000 C   0  0  0  0  0  0  0  0  0  0  0  0
    1.3123    2.2407    0.0000 C   0  0  0  0  0  0  0  0  0  0  0  0
    2.1220    2.0830    0.0000 C   0  0  0  0  0  0  0  0  0  0  0  0
    2.3903    1.3028    0.0000 C   0  0  0  0  0  0  0  0  0  0  0  0
    0.3800    0.3419    0.0000 N   0  0  0  0  0  0  0  0  0  0  0  0
    0.3940   -0.4830    0.0000 C   0  0  0  0  0  0  0  0  0  0  0  0
   -0.3133   -0.9076    0.0000 C   0  0  0  0  0  0  0  0  0  0  0  0
   -0.2992   -1.7325    0.0000 C   0  0  0  0  0  0  0  0  0  0  0  0
   -1.0065   -2.1571    0.0000 C   0  0  0  0  0  0  0  0  0  0  0  0
   -0.9925   -2.9820    0.0000 C   0  0  0  0  0  0  0  0  0  0  0  0
   -0.2711   -3.3823    0.0000 N   0  0  0  0  0  0  0  0  0  0  0  0
   -1.6998   -3.4066    0.0000 O   0  0  0  0  0  0  0  0  0  0  0  0
   -1.7279   -1.7569    0.0000 C   0  0  0  0  0  0  0  0  0  0  0  0
   -1.7420   -0.9320    0.0000 C   0  0  0  0  0  0  0  0  0  0  0  0
   -1.0347   -0.5074    0.0000 C   0  0  0  0  0  0  0  0  0  0  0  0
  1  2  1  0  0  0  0
  2  3  2  0  0  0  0
  2  4  1  0  0  0  0
  4  5  4  0  0  0  0
  4 16  4  0  0  0  0
  5 17  4  0  0  0  0
  5  6  4  0  0  0  0
  6  7  4  0  0  0  0
  6 14  4  0  0  0  0
  7 13  4  0  0  0  0
  7  8  1  0  0  0  0
  8  9  1  0  0  0  0
  9 10  1  0  0  0  0
 10 11  1  0  0  0  0
 11 12  1  0  0  0  0
 12 13  1  0  0  0  0
 13 17  4  0  0  0  0
 14 15  4  0  0  0  0
 15 16  4  0  0  0  0
 17 18  1  0  0  0  0
 18 19  1  0  0  0  0
 19 20  4  0  0  0  0
 19 27  4  0  0  0  0
 20 21  4  0  0  0  0
 21 22  1  0  0  0  0
 21 25  4  0  0  0  0
 22 23  1  0  0  0  0
 22 24  2  0  0  0  0
 25 26  4  0  0  0  0
 26 27  4  0  0  0  0
M  END
