I4A
  -OEChem-11042215103D

 49 52  0     0  0  0  0  0  0999 V2000
   -2.3040   -2.5800    0.3930 O   0  0  0  0  0  0  0  0  0  0  0  0
   -1.0990   -2.4610    0.9860 C   0  0  0  0  0  0  0  0  0  0  0  0
   -1.0260   -2.3320    2.1920 O   0  0  0  0  0  0  0  0  0  0  0  0
    0.1290   -2.4870    0.1720 C   0  0  0  0  0  0  0  0  0  0  0  0
    0.9960   -1.3820    0.1650 C   0  0  0  0  0  0  0  0  0  0  0  0
    2.1640   -1.4290   -0.6180 C   0  0  0  0  0  0  0  0  0  0  0  0
    2.8390   -0.1480   -0.4080 C   0  0  0  0  0  0  0  0  0  0  0  0
    4.1300    0.3030   -1.0390 C   0  0  0  0  0  0  0  0  0  0  0  0
    4.8210    1.3130   -0.1190 C   0  0  0  0  0  0  0  0  0  0  0  0
    4.3350    2.7210   -0.4540 C   0  0  0  0  0  0  0  0  0  0  0  0
    2.8300    2.8350   -0.2280 C   0  0  0  0  0  0  0  0  0  0  0  0
    2.4160    1.9490    0.9490 C   0  0  0  0  0  0  0  0  0  0  0  0
    2.0850    0.5640    0.4460 C   0  0  0  0  0  0  0  0  0  0  0  0
    2.4500   -2.5640   -1.3780 C   0  0  0  0  0  0  0  0  0  0  0  0
    1.5880   -3.6400   -1.3620 C   0  0  0  0  0  0  0  0  0  0  0  0
    0.4400   -3.6120   -0.5910 C   0  0  0  0  0  0  0  0  0  0  0  0
    0.9750   -0.1630    0.7910 N   0  0  0  0  0  0  0  0  0  0  0  0
   -0.0820    0.2970    1.6960 C   0  0  0  0  0  0  0  0  0  0  0  0
   -1.0810    1.1200    0.9240 C   0  0  0  0  0  0  0  0  0  0  0  0
   -2.2140    0.5250    0.4120 C   0  0  0  0  0  0  0  0  0  0  0  0
   -3.1390    1.2890   -0.3020 C   0  0  0  0  0  0  0  0  0  0  0  0
   -4.3560    0.6570   -0.8530 C   0  0  0  0  0  0  0  0  0  0  0  0
   -5.2470    1.3980   -1.5420 N   0  0  0  0  0  0  0  0  0  0  0  0
   -4.5540   -0.5310   -0.6860 O   0  0  0  0  0  0  0  0  0  0  0  0
   -2.9090    2.6520   -0.4920 C   0  0  0  0  0  0  0  0  0  0  0  0
   -1.7710    3.2360    0.0260 C   0  0  0  0  0  0  0  0  0  0  0  0
   -0.8620    2.4740    0.7370 C   0  0  0  0  0  0  0  0  0  0  0  0
   -3.0800   -2.5570    0.9690 H   0  0  0  0  0  0  0  0  0  0  0  0
    4.7820   -0.5580   -1.1890 H   0  0  0  0  0  0  0  0  0  0  0  0
    3.9200    0.7720   -2.0010 H   0  0  0  0  0  0  0  0  0  0  0  0
    4.5810    1.0820    0.9190 H   0  0  0  0  0  0  0  0  0  0  0  0
    5.9000    1.2570   -0.2640 H   0  0  0  0  0  0  0  0  0  0  0  0
    4.8500    3.4400    0.1830 H   0  0  0  0  0  0  0  0  0  0  0  0
    4.5590    2.9400   -1.4980 H   0  0  0  0  0  0  0  0  0  0  0  0
    2.5730    3.8710   -0.0100 H   0  0  0  0  0  0  0  0  0  0  0  0
    2.3030    2.5130   -1.1270 H   0  0  0  0  0  0  0  0  0  0  0  0
    3.2360    1.8900    1.6640 H   0  0  0  0  0  0  0  0  0  0  0  0
    1.5400    2.3780    1.4360 H   0  0  0  0  0  0  0  0  0  0  0  0
    3.3460   -2.5990   -1.9800 H   0  0  0  0  0  0  0  0  0  0  0  0
    1.8140   -4.5160   -1.9530 H   0  0  0  0  0  0  0  0  0  0  0  0
   -0.2230   -4.4650   -0.5840 H   0  0  0  0  0  0  0  0  0  0  0  0
   -0.5830   -0.5650    2.1360 H   0  0  0  0  0  0  0  0  0  0  0  0
    0.3570    0.9050    2.4870 H   0  0  0  0  0  0  0  0  0  0  0  0
   -2.3860   -0.5310    0.5630 H   0  0  0  0  0  0  0  0  0  0  0  0
   -5.0890    2.3450   -1.6760 H   0  0  0  0  0  0  0  0  0  0  0  0
   -6.0460    0.9830   -1.9040 H   0  0  0  0  0  0  0  0  0  0  0  0
   -3.6210    3.2490   -1.0430 H   0  0  0  0  0  0  0  0  0  0  0  0
   -1.5920    4.2910   -0.1210 H   0  0  0  0  0  0  0  0  0  0  0  0
    0.0270    2.9360    1.1400 H   0  0  0  0  0  0  0  0  0  0  0  0
  1  2  1  0  0  0  0
  1 28  1  0  0  0  0
  2  3  2  0  0  0  0
  2  4  1  0  0  0  0
  4  5  2  0  0  0  0
  4 16  1  0  0  0  0
  5 17  1  0  0  0  0
  5  6  1  0  0  0  0
  6  7  1  0  0  0  0
  6 14  2  0  0  0  0
  7 13  2  0  0  0  0
  7  8  1  0  0  0  0
  8  9  1  0  0  0  0
  8 29  1  0  0  0  0
  8 30  1  0  0  0  0
  9 10  1  0  0  0  0
  9 31  1  0  0  0  0
  9 32  1  0  0  0  0
 10 11  1  0  0  0  0
 10 33  1  0  0  0  0
 10 34  1  0  0  0  0
 11 12  1  0  0  0  0
 11 35  1  0  0  0  0
 11 36  1  0  0  0  0
 12 13  1  0  0  0  0
 12 37  1  0  0  0  0
 12 38  1  0  0  0  0
 13 17  1  0  0  0  0
 14 15  1  0  0  0  0
 14 39  1  0  0  0  0
 15 16  2  0  0  0  0
 15 40  1  0  0  0  0
 16 41  1  0  0  0  0
 17 18  1  0  0  0  0
 18 19  1  0  0  0  0
 18 42  1  0  0  0  0
 18 43  1  0  0  0  0
 19 20  2  0  0  0  0
 19 27  1  0  0  0  0
 20 21  1  0  0  0  0
 20 44  1  0  0  0  0
 21 22  1  0  0  0  0
 21 25  2  0  0  0  0
 22 23  1  0  0  0  0
 22 24  2  0  0  0  0
 23 45  1  0  0  0  0
 23 46  1  0  0  0  0
 25 26  1  0  0  0  0
 25 47  1  0  0  0  0
 26 27  2  0  0  0  0
 26 48  1  0  0  0  0
 27 49  1  0  0  0  0
M  END
> <OPENEYE_ISO_SMILES>
c1cc(cc(c1)C(=O)N)Cn2c3c(c4c2c(ccc4)C(=O)O)CCCCC3

> <OPENEYE_INCHI>
InChI=1S/C22H22N2O3/c23-21(25)15-7-4-6-14(12-15)13-24-19-11-3-1-2-8-16(19)17-9-5-10-18(20(17)24)22(26)27/h4-7,9-10,12H,1-3,8,11,13H2,(H2,23,25)(H,26,27)

> <OPENEYE_INCHIKEY>
GKBQRPKZHUFGOB-UHFFFAOYSA-N

> <FORMULA>
C22H22N2O3

$$$$
