@<TRIPOS>MOLECULE
I4A
 49 52 0 0 0
SMALL
GASTEIGER

@<TRIPOS>ATOM
      1 O          -2.3040   -2.5800    0.3930 O.3     1  LIG1       -0.4771
      2 C          -1.0990   -2.4610    0.9860 C.2     1  LIG1        0.3388
      3 O          -1.0260   -2.3320    2.1920 O.2     1  LIG1       -0.2451
      4 C           0.1290   -2.4870    0.1720 C.ar    1  LIG1        0.0828
      5 C           0.9960   -1.3820    0.1650 C.ar    1  LIG1        0.0639
      6 C           2.1640   -1.4290   -0.6180 C.ar    1  LIG1        0.0041
      7 C           2.8390   -0.1480   -0.4080 C.ar    1  LIG1       -0.0189
      8 C           4.1300    0.3030   -1.0390 C.3     1  LIG1       -0.0254
      9 C           4.8210    1.3130   -0.1190 C.3     1  LIG1       -0.0490
     10 C           4.3350    2.7210   -0.4540 C.3     1  LIG1       -0.0524
     11 C           2.8300    2.8350   -0.2280 C.3     1  LIG1       -0.0477
     12 C           2.4160    1.9490    0.9490 C.3     1  LIG1       -0.0120
     13 C           2.0850    0.5640    0.4460 C.ar    1  LIG1        0.0234
     14 C           2.4500   -2.5640   -1.3780 C.ar    1  LIG1       -0.0523
     15 C           1.5880   -3.6400   -1.3620 C.ar    1  LIG1       -0.0603
     16 C           0.4400   -3.6120   -0.5910 C.ar    1  LIG1       -0.0457
     17 N           0.9750   -0.1630    0.7910 N.ar    1  LIG1       -0.3386
     18 C          -0.0820    0.2970    1.6960 C.3     1  LIG1        0.0486
     19 C          -1.0810    1.1200    0.9240 C.ar    1  LIG1       -0.0270
     20 C          -2.2140    0.5250    0.4120 C.ar    1  LIG1       -0.0448
     21 C          -3.1390    1.2890   -0.3020 C.ar    1  LIG1        0.0368
     22 C          -4.3560    0.6570   -0.8530 C.2     1  LIG1        0.2415
     23 N          -5.2470    1.3980   -1.5420 N.am    1  LIG1       -0.3253
     24 O          -4.5540   -0.5310   -0.6860 O.2     1  LIG1       -0.2704
     25 C          -2.9090    2.6520   -0.4920 C.ar    1  LIG1       -0.0496
     26 C          -1.7710    3.2360    0.0260 C.ar    1  LIG1       -0.0607
     27 C          -0.8620    2.4740    0.7370 C.ar    1  LIG1       -0.0568
     28 H          -3.0800   -2.5570    0.9690 H       1  LIG1        0.2954
     29 H           4.7820   -0.5580   -1.1890 H       1  LIG1        0.0314
     30 H           3.9200    0.7720   -2.0010 H       1  LIG1        0.0314
     31 H           4.5810    1.0820    0.9190 H       1  LIG1        0.0268
     32 H           5.9000    1.2570   -0.2640 H       1  LIG1        0.0268
     33 H           4.8500    3.4400    0.1830 H       1  LIG1        0.0265
     34 H           4.5590    2.9400   -1.4980 H       1  LIG1        0.0265
     35 H           2.5730    3.8710   -0.0100 H       1  LIG1        0.0269
     36 H           2.3030    2.5130   -1.1270 H       1  LIG1        0.0269
     37 H           3.2360    1.8900    1.6640 H       1  LIG1        0.0328
     38 H           1.5400    2.3780    1.4360 H       1  LIG1        0.0328
     39 H           3.3460   -2.5990   -1.9800 H       1  LIG1        0.0624
     40 H           1.8140   -4.5160   -1.9530 H       1  LIG1        0.0618
     41 H          -0.2230   -4.4650   -0.5840 H       1  LIG1        0.0626
     42 H          -0.5830   -0.5650    2.1360 H       1  LIG1        0.0541
     43 H           0.3570    0.9050    2.4870 H       1  LIG1        0.0541
     44 H          -2.3860   -0.5310    0.5630 H       1  LIG1        0.0628
     45 H          -5.0890    2.3450   -1.6760 H       1  LIG1        0.1453
     46 H          -6.0460    0.9830   -1.9040 H       1  LIG1        0.1453
     47 H          -3.6210    3.2490   -1.0430 H       1  LIG1        0.0625
     48 H          -1.5920    4.2910   -0.1210 H       1  LIG1        0.0618
     49 H           0.0270    2.9360    1.1400 H       1  LIG1        0.0621
@<TRIPOS>BOND
     1     1     2    1
     2     1    28    1
     3     2     3    2
     4     2     4    1
     5     4     5   ar
     6     4    16   ar
     7     5    17   ar
     8     5     6   ar
     9     6     7   ar
    10     6    14   ar
    11     7    13   ar
    12     7     8    1
    13     8     9    1
    14     8    29    1
    15     8    30    1
    16     9    10    1
    17     9    31    1
    18     9    32    1
    19    10    11    1
    20    10    33    1
    21    10    34    1
    22    11    12    1
    23    11    35    1
    24    11    36    1
    25    12    13    1
    26    12    37    1
    27    12    38    1
    28    13    17   ar
    29    14    15   ar
    30    14    39    1
    31    15    16   ar
    32    15    40    1
    33    16    41    1
    34    17    18    1
    35    18    19    1
    36    18    42    1
    37    18    43    1
    38    19    20   ar
    39    19    27   ar
    40    20    21   ar
    41    20    44    1
    42    21    22    1
    43    21    25   ar
    44    22    23   am
    45    22    24    2
    46    23    45    1
    47    23    46    1
    48    25    26   ar
    49    25    47    1
    50    26    27   ar
    51    26    48    1
    52    27    49    1
