@<TRIPOS>MOLECULE
162
 65 67 0 0 0
SMALL
GASTEIGER

@<TRIPOS>ATOM
      1 O          18.7410  -13.1270   19.9180 O.2     1  UNL1       -0.2706
      2 N          17.7610  -15.0980   19.4950 N.ar    1  UNL1       -0.2815
      3 C          17.7130  -15.0200   18.0110 C.ar    1  UNL1        0.1109
      4 C          16.9530  -16.2300   17.5240 C.ar    1  UNL1       -0.0313
      5 C          16.6330  -17.0030   18.5330 C.ar    1  UNL1       -0.0430
      6 C          17.1380  -16.4090   19.8220 C.ar    1  UNL1        0.0132
      7 C          18.2680  -14.1560   20.3590 C.2     1  UNL1        0.2490
      8 C          17.0060  -13.7430   17.6160 C.2     1  UNL1        0.2612
      9 O          16.0060  -13.3990   18.2360 O.2     1  UNL1       -0.2686
     10 N          17.5030  -12.9770   16.5990 N.am    1  UNL1       -0.3060
     11 C          16.8540  -11.6950   16.1910 C.3     1  UNL1        0.0386
     12 C          15.8070  -11.9630   15.1270 C.ar    1  UNL1       -0.0120
     13 C          16.0280  -12.5180   13.9160 C.ar    1  UNL1        0.0097
     14 N          14.8590  -12.6060   13.2460 N.ar    1  UNL1       -0.3436
     15 C          13.8550  -12.0850   14.0580 C.ar    1  UNL1        0.1329
     16 C          14.7160  -13.1660   11.8870 C.3     1  UNL1        0.0121
     17 C          14.4430  -11.6870   15.2280 C.ar    1  UNL1       -0.0242
     18 C          12.4170  -11.9700   13.7520 C.2     1  UNL1        0.3248
     19 N          11.8770  -10.7860   13.4060 N.2     1  UNL1       -0.0981
     20 N          11.6370  -13.0550   13.8360 N.pl3   1  UNL1       -0.2454
     21 C          18.2460  -14.3600   21.8600 C.3     1  UNL1        0.0884
     22 N          17.4140  -13.2840   22.4350 N.3     1  UNL1       -0.2959
     23 C          15.9840  -13.5900   22.3400 C.3     1  UNL1        0.0948
     24 C          15.2490  -12.3070   22.0540 C.2     1  UNL1        0.3188
     25 O          15.4540  -11.7090   21.0090 O.2     1  UNL1       -0.2496
     26 O          14.4470  -11.8640   22.8680 O.3     1  UNL1       -0.4797
     27 C          19.6850  -14.2910   22.4380 C.3     1  UNL1       -0.0259
     28 C          20.1670  -15.6700   22.9080 C.3     1  UNL1       -0.0392
     29 C          20.7170  -15.5680   24.3440 C.3     1  UNL1       -0.0501
     30 C          21.2550  -16.9500   24.8020 C.3     1  UNL1       -0.0528
     31 C          20.1360  -18.0190   24.7300 C.3     1  UNL1       -0.0530
     32 C          19.5280  -18.0800   23.3040 C.3     1  UNL1       -0.0528
     33 C          19.0030  -16.6850   22.8740 C.3     1  UNL1       -0.0501
     34 H          16.7034  -16.4339   16.4723 H       1  UNL1        0.0640
     35 H          16.0765  -17.9482   18.4505 H       1  UNL1        0.0633
     36 H          17.0604  -16.8615   20.8216 H       1  UNL1        0.0814
     37 H          18.3475  -13.2921   16.1007 H       1  UNL1        0.1494
     38 H          16.3743  -11.2340   17.0670 H       1  UNL1        0.0512
     39 H          17.6177  -11.0153   15.7850 H       1  UNL1        0.0512
     40 H          17.0063  -12.8467   13.5353 H       1  UNL1        0.0812
     41 H          14.4444  -14.2297   11.9555 H       1  UNL1        0.0456
     42 H          13.9283  -12.6205   11.3466 H       1  UNL1        0.0456
     43 H          15.6688  -13.0649   11.3466 H       1  UNL1        0.0456
     44 H          13.9334  -11.2326   16.0904 H       1  UNL1        0.0644
     45 H          10.8710  -10.7208   13.1950 H       1  UNL1        0.3633
     46 H          10.6315  -12.9841   13.6241 H       1  UNL1        0.2885
     47 H          12.0424  -13.9606   14.1125 H       1  UNL1        0.2885
     48 H          17.8341  -15.3490   22.1095 H       1  UNL1        0.0559
     49 H          17.6638  -13.1638   23.4270 H       1  UNL1        0.1232
     50 H          15.8098  -14.3089   21.5259 H       1  UNL1        0.0539
     51 H          15.6257  -14.0328   23.2810 H       1  UNL1        0.0539
     52 H          13.9645  -11.0205   22.6788 H       1  UNL1        0.2951
     53 H          20.3665  -13.9205   21.6580 H       1  UNL1        0.0288
     54 H          19.6776  -13.6133   23.3044 H       1  UNL1        0.0288
     55 H          20.9632  -16.0148   22.2319 H       1  UNL1        0.0301
     56 H          21.5336  -14.8315   24.3705 H       1  UNL1        0.0268
     57 H          19.9091  -15.2513   25.0200 H       1  UNL1        0.0268
     58 H          22.0855  -17.2506   24.1463 H       1  UNL1        0.0265
     59 H          21.6033  -16.8692   25.8423 H       1  UNL1        0.0265
     60 H          20.5586  -19.0021   24.9849 H       1  UNL1        0.0265
     61 H          19.3422  -17.7491   25.4420 H       1  UNL1        0.0265
     62 H          20.3018  -18.4094   22.5949 H       1  UNL1        0.0265
     63 H          18.6876  -18.7897   23.3069 H       1  UNL1        0.0265
     64 H          18.5961  -16.7438   21.8537 H       1  UNL1        0.0268
     65 H          18.2101  -16.3604   23.5639 H       1  UNL1        0.0268
@<TRIPOS>BOND
     1     3     2   ar
     2     4     3   ar
     3     5     4   ar
     4     6     5   ar
     5     6     2   ar
     6     7     2   am
     7     7     1    2
     8     8     3    1
     9     9     8    2
    10    10     8   am
    11    11    10    1
    12    12    11    1
    13    13    12   ar
    14    14    13   ar
    15    15    14   ar
    16    16    14    1
    17    17    15   ar
    18    17    12   ar
    19    18    15    1
    20    19    18    2
    21    20    18    1
    22    21     7    1
    23    22    21    1
    24    23    22    1
    25    24    23    1
    26    25    24    2
    27    26    24    1
    28    27    21    1
    29    28    27    1
    30    29    28    1
    31    30    29    1
    32    31    30    1
    33    32    31    1
    34    33    32    1
    35    33    28    1
    36     4    34    1
    37     5    35    1
    38     6    36    1
    39    10    37    1
    40    11    38    1
    41    11    39    1
    42    13    40    1
    43    16    41    1
    44    16    42    1
    45    16    43    1
    46    17    44    1
    47    19    45    1
    48    20    46    1
    49    20    47    1
    50    21    48    1
    51    22    49    1
    52    23    50    1
    53    23    51    1
    54    26    52    1
    55    27    53    1
    56    27    54    1
    57    28    55    1
    58    29    56    1
    59    29    57    1
    60    30    58    1
    61    30    59    1
    62    31    60    1
    63    31    61    1
    64    32    62    1
    65    32    63    1
    66    33    64    1
    67    33    65    1
