162
 OpenBabel11082210443D

 65 67  0  0  0  0  0  0  0  0999 V2000
   18.7410  -13.1270   19.9180 O   0  0  0  0  0  0  0  0  0  0  0  0
   17.7610  -15.0980   19.4950 N   0  0  0  0  0  0  0  0  0  0  0  0
   17.7130  -15.0200   18.0110 C   0  0  0  0  0  0  0  0  0  0  0  0
   16.9530  -16.2300   17.5240 C   0  0  0  0  0  0  0  0  0  0  0  0
   16.6330  -17.0030   18.5330 C   0  0  0  0  0  0  0  0  0  0  0  0
   17.1380  -16.4090   19.8220 C   0  0  0  0  0  0  0  0  0  0  0  0
   18.2680  -14.1560   20.3590 C   0  0  0  0  0  0  0  0  0  0  0  0
   17.0060  -13.7430   17.6160 C   0  0  0  0  0  0  0  0  0  0  0  0
   16.0060  -13.3990   18.2360 O   0  0  0  0  0  0  0  0  0  0  0  0
   17.5030  -12.9770   16.5990 N   0  0  0  0  0  0  0  0  0  0  0  0
   16.8540  -11.6950   16.1910 C   0  0  0  0  0  0  0  0  0  0  0  0
   15.8070  -11.9630   15.1270 C   0  0  0  0  0  0  0  0  0  0  0  0
   16.0280  -12.5180   13.9160 C   0  0  0  0  0  0  0  0  0  0  0  0
   14.8590  -12.6060   13.2460 N   0  0  0  0  0  0  0  0  0  0  0  0
   13.8550  -12.0850   14.0580 C   0  0  0  0  0  0  0  0  0  0  0  0
   14.7160  -13.1660   11.8870 C   0  0  0  0  0  0  0  0  0  0  0  0
   14.4430  -11.6870   15.2280 C   0  0  0  0  0  0  0  0  0  0  0  0
   12.4170  -11.9700   13.7520 C   0  0  0  0  0  0  0  0  0  0  0  0
   11.8770  -10.7860   13.4060 N   0  0  0  0  0  0  0  0  0  0  0  0
   11.6370  -13.0550   13.8360 N   0  0  0  0  0  0  0  0  0  0  0  0
   18.2460  -14.3600   21.8600 C   0  0  2  0  0  0  0  0  0  0  0  0
   17.4140  -13.2840   22.4350 N   0  0  0  0  0  0  0  0  0  0  0  0
   15.9840  -13.5900   22.3400 C   0  0  0  0  0  0  0  0  0  0  0  0
   15.2490  -12.3070   22.0540 C   0  0  0  0  0  0  0  0  0  0  0  0
   15.4540  -11.7090   21.0090 O   0  0  0  0  0  0  0  0  0  0  0  0
   14.4470  -11.8640   22.8680 O   0  0  0  0  0  0  0  0  0  0  0  0
   19.6850  -14.2910   22.4380 C   0  0  0  0  0  0  0  0  0  0  0  0
   20.1670  -15.6700   22.9080 C   0  0  0  0  0  0  0  0  0  0  0  0
   20.7170  -15.5680   24.3440 C   0  0  0  0  0  0  0  0  0  0  0  0
   21.2550  -16.9500   24.8020 C   0  0  0  0  0  0  0  0  0  0  0  0
   20.1360  -18.0190   24.7300 C   0  0  0  0  0  0  0  0  0  0  0  0
   19.5280  -18.0800   23.3040 C   0  0  0  0  0  0  0  0  0  0  0  0
   19.0030  -16.6850   22.8740 C   0  0  0  0  0  0  0  0  0  0  0  0
   16.7034  -16.4339   16.4723 H   0  0  0  0  0  0  0  0  0  0  0  0
   16.0765  -17.9482   18.4505 H   0  0  0  0  0  0  0  0  0  0  0  0
   17.0604  -16.8615   20.8216 H   0  0  0  0  0  0  0  0  0  0  0  0
   18.3475  -13.2921   16.1007 H   0  0  0  0  0  0  0  0  0  0  0  0
   16.3743  -11.2340   17.0670 H   0  0  0  0  0  0  0  0  0  0  0  0
   17.6177  -11.0153   15.7850 H   0  0  0  0  0  0  0  0  0  0  0  0
   17.0063  -12.8467   13.5353 H   0  0  0  0  0  0  0  0  0  0  0  0
   14.4444  -14.2297   11.9555 H   0  0  0  0  0  0  0  0  0  0  0  0
   13.9283  -12.6205   11.3466 H   0  0  0  0  0  0  0  0  0  0  0  0
   15.6688  -13.0649   11.3466 H   0  0  0  0  0  0  0  0  0  0  0  0
   13.9334  -11.2326   16.0904 H   0  0  0  0  0  0  0  0  0  0  0  0
   10.8710  -10.7208   13.1950 H   0  0  0  0  0  0  0  0  0  0  0  0
   10.6315  -12.9841   13.6241 H   0  0  0  0  0  0  0  0  0  0  0  0
   12.0424  -13.9606   14.1125 H   0  0  0  0  0  0  0  0  0  0  0  0
   17.8341  -15.3490   22.1095 H   0  0  0  0  0  0  0  0  0  0  0  0
   17.6638  -13.1638   23.4270 H   0  0  0  0  0  0  0  0  0  0  0  0
   15.8098  -14.3089   21.5259 H   0  0  0  0  0  0  0  0  0  0  0  0
   15.6257  -14.0328   23.2810 H   0  0  0  0  0  0  0  0  0  0  0  0
   13.9645  -11.0205   22.6788 H   0  0  0  0  0  0  0  0  0  0  0  0
   20.3665  -13.9205   21.6580 H   0  0  0  0  0  0  0  0  0  0  0  0
   19.6776  -13.6133   23.3044 H   0  0  0  0  0  0  0  0  0  0  0  0
   20.9632  -16.0148   22.2319 H   0  0  0  0  0  0  0  0  0  0  0  0
   21.5336  -14.8315   24.3705 H   0  0  0  0  0  0  0  0  0  0  0  0
   19.9091  -15.2513   25.0200 H   0  0  0  0  0  0  0  0  0  0  0  0
   22.0855  -17.2506   24.1463 H   0  0  0  0  0  0  0  0  0  0  0  0
   21.6033  -16.8692   25.8423 H   0  0  0  0  0  0  0  0  0  0  0  0
   20.5586  -19.0021   24.9849 H   0  0  0  0  0  0  0  0  0  0  0  0
   19.3422  -17.7491   25.4420 H   0  0  0  0  0  0  0  0  0  0  0  0
   20.3018  -18.4094   22.5949 H   0  0  0  0  0  0  0  0  0  0  0  0
   18.6876  -18.7897   23.3069 H   0  0  0  0  0  0  0  0  0  0  0  0
   18.5961  -16.7438   21.8537 H   0  0  0  0  0  0  0  0  0  0  0  0
   18.2101  -16.3604   23.5639 H   0  0  0  0  0  0  0  0  0  0  0  0
  3  2  1  0  0  0  0
  4  3  2  0  0  0  0
  4 34  1  0  0  0  0
  5  4  1  0  0  0  0
  5 35  1  0  0  0  0
  6  5  2  0  0  0  0
  6  2  1  0  0  0  0
  6 36  1  0  0  0  0
  7  2  1  0  0  0  0
  7  1  2  0  0  0  0
  8  3  1  0  0  0  0
  9  8  2  0  0  0  0
 10  8  1  0  0  0  0
 10 37  1  0  0  0  0
 11 10  1  0  0  0  0
 11 38  1  0  0  0  0
 11 39  1  0  0  0  0
 12 11  1  0  0  0  0
 13 12  2  0  0  0  0
 13 40  1  0  0  0  0
 14 13  1  0  0  0  0
 15 14  1  0  0  0  0
 16 14  1  0  0  0  0
 16 41  1  0  0  0  0
 16 42  1  0  0  0  0
 16 43  1  0  0  0  0
 17 15  2  0  0  0  0
 17 12  1  0  0  0  0
 17 44  1  0  0  0  0
 18 15  1  0  0  0  0
 19 18  2  0  0  0  0
 19 45  1  0  0  0  0
 20 18  1  0  0  0  0
 20 46  1  0  0  0  0
 20 47  1  0  0  0  0
 21  7  1  0  0  0  0
 21 48  1  1  0  0  0
 22 21  1  0  0  0  0
 22 49  1  0  0  0  0
 23 22  1  0  0  0  0
 23 50  1  0  0  0  0
 23 51  1  0  0  0  0
 24 23  1  0  0  0  0
 25 24  2  0  0  0  0
 26 24  1  0  0  0  0
 26 52  1  0  0  0  0
 27 21  1  0  0  0  0
 27 53  1  0  0  0  0
 27 54  1  0  0  0  0
 28 27  1  0  0  0  0
 28 55  1  0  0  0  0
 29 28  1  0  0  0  0
 29 56  1  0  0  0  0
 29 57  1  0  0  0  0
 30 29  1  0  0  0  0
 30 58  1  0  0  0  0
 30 59  1  0  0  0  0
 31 30  1  0  0  0  0
 31 60  1  0  0  0  0
 31 61  1  0  0  0  0
 32 31  1  0  0  0  0
 32 62  1  0  0  0  0
 32 63  1  0  0  0  0
 33 32  1  0  0  0  0
 33 28  1  0  0  0  0
 33 64  1  0  0  0  0
 33 65  1  0  0  0  0
M  END
$$$$
