797
 OpenBabel04182215023D

 32 35  0  0  0  0  0  0  0  0999 V2000
   26.7180   36.9220   40.0850 C   0  0  0  0  0  0  0  0  0  0  0  0
   27.4450   35.1380   41.7120 C   0  0  0  0  0  0  0  0  0  0  0  0
   27.0020   37.7540   38.9600 C   0  0  0  0  0  0  0  0  0  0  0  0
   25.4560   37.0110   40.7470 C   0  0  0  0  0  0  0  0  0  0  0  0
   27.7370   35.9580   40.5860 C   0  0  0  0  0  0  0  0  0  0  0  0
   26.1730   35.2530   42.3520 C   0  0  0  0  0  0  0  0  0  0  0  0
   21.3980   33.2090   42.9710 C   0  0  0  0  0  0  0  0  0  0  0  0
   25.1680   36.1760   41.8880 C   0  0  0  0  0  0  0  0  0  0  0  0
   28.2760   37.6420   38.3200 C   0  0  0  0  0  0  0  0  0  0  0  0
   28.9960   35.8670   39.9280 C   0  0  0  0  0  0  0  0  0  0  0  0
   22.7960   35.2900   42.8640 C   0  0  0  0  0  0  0  0  0  0  0  0
   20.5650   35.2970   44.0310 C   0  0  0  0  0  0  0  0  0  0  0  0
   22.6000   33.8800   42.5470 C   0  0  0  0  0  0  0  0  0  0  0  0
   23.8390   36.2580   42.6090 C   0  0  0  0  0  0  0  0  0  0  0  0
   21.7590   35.9470   43.6030 C   0  0  0  0  0  0  0  0  0  0  0  0
   23.3210   37.3870   43.2150 N   0  0  0  0  0  0  0  0  0  0  0  0
   20.3930   33.9300   43.7110 C   0  0  0  0  0  0  0  0  0  0  0  0
   29.2550   36.7100   38.8020 C   0  0  0  0  0  0  0  0  0  0  0  0
   30.4760   36.6320   38.1510 O   0  0  0  0  0  0  0  0  0  0  0  0
   19.2290   33.2950   44.1210 O   0  0  0  0  0  0  0  0  0  0  0  0
   22.1480   37.2260   43.7800 O   0  0  0  0  0  0  0  0  0  0  0  0
   28.1457   34.4665   42.0629 H   0  0  0  0  0  0  0  0  0  0  0  0
   26.2990   38.4257   38.6141 H   0  0  0  0  0  0  0  0  0  0  0  0
   24.7449   37.6772   40.4070 H   0  0  0  0  0  0  0  0  0  0  0  0
   25.9679   34.6582   43.1700 H   0  0  0  0  0  0  0  0  0  0  0  0
   21.2564   32.2121   42.7449 H   0  0  0  0  0  0  0  0  0  0  0  0
   28.4931   38.2364   37.5048 H   0  0  0  0  0  0  0  0  0  0  0  0
   29.7122   35.2017   40.2590 H   0  0  0  0  0  0  0  0  0  0  0  0
   19.8440   35.8109   44.5611 H   0  0  0  0  0  0  0  0  0  0  0  0
   23.3214   33.3638   42.0197 H   0  0  0  0  0  0  0  0  0  0  0  0
   31.1287   36.0299   38.4500 H   0  0  0  0  0  0  0  0  0  0  0  0
   19.0935   32.3898   43.9203 H   0  0  0  0  0  0  0  0  0  0  0  0
  2 22  1  0  0  0  0
  3  1  1  0  0  0  0
  3 23  1  0  0  0  0
  4  1  2  0  0  0  0
  4 24  1  0  0  0  0
  5  1  1  0  0  0  0
  5  2  2  0  0  0  0
  6  2  1  0  0  0  0
  6 25  1  0  0  0  0
  7 26  1  0  0  0  0
  8  6  2  0  0  0  0
  8  4  1  0  0  0  0
  9  3  2  0  0  0  0
  9 27  1  0  0  0  0
 10  5  1  0  0  0  0
 10 28  1  0  0  0  0
 12 29  1  0  0  0  0
 13  7  2  0  0  0  0
 13 11  1  0  0  0  0
 13 30  1  0  0  0  0
 14 11  1  0  0  0  0
 14  8  1  0  0  0  0
 15 12  1  0  0  0  0
 15 11  2  0  0  0  0
 16 14  2  0  0  0  0
 17  7  1  0  0  0  0
 17 12  2  0  0  0  0
 18 10  2  0  0  0  0
 18  9  1  0  0  0  0
 19 18  1  0  0  0  0
 19 31  1  0  0  0  0
 20 17  1  0  0  0  0
 20 32  1  0  0  0  0
 21 15  1  0  0  0  0
 21 16  1  0  0  0  0
M  END
$$$$
