@<TRIPOS>MOLECULE
797
 32 35 0 0 0
SMALL
GASTEIGER

@<TRIPOS>ATOM
      1 C          26.7180   36.9220   40.0850 C.ar    1  UNL1       -0.0170
      2 C          27.4450   35.1380   41.7120 C.ar    1  UNL1       -0.0533
      3 C          27.0020   37.7540   38.9600 C.ar    1  UNL1       -0.0506
      4 C          25.4560   37.0110   40.7470 C.ar    1  UNL1       -0.0447
      5 C          27.7370   35.9580   40.5860 C.ar    1  UNL1       -0.0144
      6 C          26.1730   35.2530   42.3520 C.ar    1  UNL1       -0.0518
      7 C          21.3980   33.2090   42.9710 C.ar    1  UNL1       -0.0193
      8 C          25.1680   36.1760   41.8880 C.ar    1  UNL1        0.0048
      9 C          28.2760   37.6420   38.3200 C.ar    1  UNL1       -0.0196
     10 C          28.9960   35.8670   39.9280 C.ar    1  UNL1       -0.0125
     11 C          22.7960   35.2900   42.8640 C.ar    1  UNL1        0.0492
     12 C          20.5650   35.2970   44.0310 C.ar    1  UNL1        0.0254
     13 C          22.6000   33.8800   42.5470 C.ar    1  UNL1       -0.0454
     14 C          23.8390   36.2580   42.6090 C.ar    1  UNL1        0.1211
     15 C          21.7590   35.9470   43.6030 C.ar    1  UNL1        0.1713
     16 N          23.3210   37.3870   43.2150 N.ar    1  UNL1       -0.0770
     17 C          20.3930   33.9300   43.7110 C.ar    1  UNL1        0.1205
     18 C          29.2550   36.7100   38.8020 C.ar    1  UNL1        0.1175
     19 O          30.4760   36.6320   38.1510 O.3     1  UNL1       -0.5067
     20 O          19.2290   33.2950   44.1210 O.3     1  UNL1       -0.5066
     21 O          22.1480   37.2260   43.7800 O.2     1  UNL1       -0.3539
     22 H          28.1457   34.4665   42.0629 H       1  UNL1        0.0624
     23 H          26.2990   38.4257   38.6141 H       1  UNL1        0.0625
     24 H          24.7449   37.6772   40.4070 H       1  UNL1        0.0630
     25 H          25.9679   34.6582   43.1700 H       1  UNL1        0.0624
     26 H          21.2564   32.2121   42.7449 H       1  UNL1        0.0654
     27 H          28.4931   38.2364   37.5048 H       1  UNL1        0.0654
     28 H          29.7122   35.2017   40.2590 H       1  UNL1        0.0660
     29 H          19.8440   35.8109   44.5611 H       1  UNL1        0.0692
     30 H          23.3214   33.3638   42.0197 H       1  UNL1        0.0626
     31 H          31.1287   36.0299   38.4500 H       1  UNL1        0.2921
     32 H          19.0935   32.3898   43.9203 H       1  UNL1        0.2921
@<TRIPOS>BOND
     1     3     1   ar
     2     4     1   ar
     3     5     1   ar
     4     5     2   ar
     5     6     2   ar
     6     8     6   ar
     7     8     4   ar
     8     9     3   ar
     9    10     5   ar
    10    13     7   ar
    11    13    11   ar
    12    14    11   ar
    13    14     8    1
    14    15    12   ar
    15    15    11   ar
    16    16    14   ar
    17    17     7   ar
    18    17    12   ar
    19    18    10   ar
    20    18     9   ar
    21    19    18    1
    22    20    17    1
    23    21    15   ar
    24    21    16   ar
    25     2    22    1
    26     3    23    1
    27     4    24    1
    28     6    25    1
    29     7    26    1
    30     9    27    1
    31    10    28    1
    32    12    29    1
    33    13    30    1
    34    19    31    1
    35    20    32    1
