@<TRIPOS>MOLECULE
FXV
 60 62 0 0 0
SMALL
GASTEIGER

@<TRIPOS>ATOM
      1 C           6.5720    7.5690   22.5140 C.3     1  UNL1        0.0338
      2 C           5.4450    8.4210   21.8920 C.3     1  UNL1       -0.0458
      3 N           6.6230    6.3220   21.7940 N.am    1  UNL1       -0.3080
      4 C           5.7810    5.2970   22.0320 C.2     1  UNL1        0.2443
      5 O           4.8990    5.3430   22.9100 O.2     1  UNL1       -0.2702
      6 C           5.9690    4.1420   21.1610 C.ar    1  UNL1        0.0367
      7 C           6.9870    3.1170   21.3800 C.ar    1  UNL1       -0.0491
      8 C           7.1010    2.0300   20.4490 C.ar    1  UNL1       -0.0533
      9 C           6.2450    1.9080   19.3010 C.ar    1  UNL1       -0.0175
     10 C           5.2470    2.9190   19.1010 C.ar    1  UNL1       -0.0533
     11 C           5.1130    4.0110   20.0090 C.ar    1  UNL1       -0.0491
     12 C           6.4010    0.7700   18.3370 C.ar    1  UNL1       -0.0066
     13 C           7.7040    0.3280   17.9330 C.ar    1  UNL1        0.0111
     14 C           7.8010   -0.7650   17.0200 C.ar    1  UNL1        0.1834
     15 N           6.6890   -1.4250   16.5030 N.ar    1  UNL1       -0.1774
     16 O           6.8620   -2.4610   15.6350 O.co2   1  UNL1       -0.6198
     17 C           5.4360   -1.0120   16.8840 C.ar    1  UNL1        0.1834
     18 C           5.2560    0.0790   17.7970 C.ar    1  UNL1        0.0111
     19 C           7.9980    8.2330   22.4570 C.3     1  UNL1        0.0784
     20 C           8.3760    8.7670   23.8510 C.2     1  UNL1        0.3120
     21 O           8.0380    9.8210   24.2650 O.2     1  UNL1       -0.2505
     22 O           9.1280    7.8690   24.5430 O.3     1  UNL1       -0.4677
     23 C           9.2720    7.9260   25.9640 C.3     1  UNL1        0.0817
     24 C           8.1310    9.3760   21.3510 C.3     1  UNL1       -0.0130
     25 C           8.4440    8.9050   19.9220 C.ar    1  UNL1       -0.0457
     26 C           7.6830    9.3500   18.7540 C.ar    1  UNL1       -0.0438
     27 C           8.0100    8.8740   17.4110 C.ar    1  UNL1        0.0611
     28 C           9.1130    7.9410   17.2560 C.ar    1  UNL1       -0.0470
     29 C           9.8620    7.5000   18.3940 C.ar    1  UNL1       -0.0607
     30 C           9.5300    7.9750   19.7120 C.ar    1  UNL1       -0.0585
     31 C           7.2520    9.3180   16.2390 C.2     1  UNL1        0.2662
     32 N           6.1070    9.9950   16.3590 N.2     1  UNL1       -0.2884
     33 N           7.7230    9.0400   15.0100 N.pl3   1  UNL1       -0.2497
     34 H           6.3320    7.4460   23.5804 H       1  UNL1        0.0504
     35 H           4.8440    8.8754   22.6934 H       1  UNL1        0.0248
     36 H           5.8856    9.2138   21.2697 H       1  UNL1        0.0248
     37 H           4.8023    7.7809   21.2697 H       1  UNL1        0.0248
     38 H           7.3381    6.2084   21.0614 H       1  UNL1        0.1493
     39 H           7.6589    3.1775   22.2489 H       1  UNL1        0.0625
     40 H           7.8709    1.2633   20.6205 H       1  UNL1        0.0624
     41 H           4.5742    2.8510   18.2334 H       1  UNL1        0.0624
     42 H           4.3386    4.7704   19.8257 H       1  UNL1        0.0625
     43 H           8.6090    0.8205   18.3183 H       1  UNL1        0.0683
     44 H           8.8013   -1.1018   16.7102 H       1  UNL1        0.1389
     45 H           4.5525   -1.5285   16.4807 H       1  UNL1        0.1389
     46 H           4.2413    0.3899   18.0865 H       1  UNL1        0.0683
     47 H           8.7052    7.4474   22.1525 H       1  UNL1        0.0435
     48 H           8.3503    7.5612   26.4409 H       1  UNL1        0.0661
     49 H          10.1188    7.2952   26.2723 H       1  UNL1        0.0661
     50 H           9.4577    8.9654   26.2723 H       1  UNL1        0.0661
     51 H           7.1794    9.9270   21.3218 H       1  UNL1        0.0322
     52 H           8.9963    9.9822   21.6571 H       1  UNL1        0.0322
     53 H           6.8498   10.0554   18.8890 H       1  UNL1        0.0629
     54 H           9.3753    7.5697   16.2544 H       1  UNL1        0.0626
     55 H          10.6954    6.7946   18.2605 H       1  UNL1        0.0618
     56 H          10.1140    7.6234   20.5753 H       1  UNL1        0.0620
     57 H           5.5952   10.2946   15.5169 H       1  UNL1        0.3009
     58 H           5.7358   10.2175   17.2937 H       1  UNL1        0.3009
     59 H           7.2005    9.3461   14.1768 H       1  UNL1        0.2883
     60 H           8.6062    8.5211   14.9022 H       1  UNL1        0.2883
@<TRIPOS>UNITY_ATOM_ATTR
15 1
charge 1
16 1
charge -1
32 1
charge 1
@<TRIPOS>BOND
     1     2     1    1
     2     3     1    1
     3     4     3   am
     4     5     4    2
     5     6     4    1
     6     7     6   ar
     7     8     7   ar
     8     9     8   ar
     9    10     9   ar
    10    11    10   ar
    11    11     6   ar
    12    12     9    1
    13    13    12   ar
    14    14    13   ar
    15    15    14   ar
    16    16    15    1
    17    17    15   ar
    18    18    17   ar
    19    18    12   ar
    20    19     1    1
    21    20    19    1
    22    21    20    2
    23    22    20    1
    24    23    22    1
    25    24    19    1
    26    25    24    1
    27    26    25   ar
    28    27    26   ar
    29    28    27   ar
    30    29    28   ar
    31    30    29   ar
    32    30    25   ar
    33    31    27    1
    34    32    31    2
    35    33    31    1
    36     1    34    1
    37     2    35    1
    38     2    36    1
    39     2    37    1
    40     3    38    1
    41     7    39    1
    42     8    40    1
    43    10    41    1
    44    11    42    1
    45    13    43    1
    46    14    44    1
    47    17    45    1
    48    18    46    1
    49    19    47    1
    50    23    48    1
    51    23    49    1
    52    23    50    1
    53    24    51    1
    54    24    52    1
    55    26    53    1
    56    28    54    1
    57    29    55    1
    58    30    56    1
    59    32    57    1
    60    32    58    1
    61    33    59    1
    62    33    60    1
