@<TRIPOS>MOLECULE
QWE
 82 85 0 0 0
SMALL
GASTEIGER

@<TRIPOS>ATOM
      1 C          18.9360  -15.1440   22.6140 C.3     1  UNL1        0.1050
      2 C          19.8170  -14.1090   21.9080 C.2     1  UNL1        0.2344
      3 O          20.9650  -14.0320   22.3380 O.2     1  UNL1       -0.2738
      4 N          19.2710  -13.2350   20.9290 N.am    1  UNL1       -0.2971
      5 C          17.7210  -13.2630   20.7540 C.3     1  UNL1        0.0264
      6 C          20.1760  -12.1530   20.2860 C.3     1  UNL1        0.0150
      7 C          17.5040  -13.2610   19.2340 C.3     1  UNL1       -0.0342
      8 C          18.3560  -12.0910   18.4720 C.3     1  UNL1       -0.0500
      9 C          19.9310  -12.1180   18.8000 C.3     1  UNL1       -0.0371
     10 C          17.0440  -12.2150   21.2900 C.3     1  UNL1       -0.0272
     11 C          15.5070  -12.4400   21.5420 C.3     1  UNL1        0.0142
     12 C          14.8000  -11.2660   20.9720 C.2     1  UNL1        0.1880
     13 O          15.3880  -10.4670   20.3030 O.2     1  UNL1       -0.2899
     14 C          13.3360  -11.0140   21.2760 C.ar    1  UNL1        0.1434
     15 S          12.9410   -9.5910   22.2160 S.2     1  UNL1       -0.0728
     16 C          11.7020  -10.5540   22.9430 C.ar    1  UNL1       -0.0041
     17 C          11.6660  -11.8200   22.3950 C.ar    1  UNL1        0.0355
     18 N          12.5560  -12.0990   21.4140 N.ar    1  UNL1       -0.2444
     19 C          18.3330  -14.5910   23.8980 C.3     1  UNL1       -0.0246
     20 C          18.4170  -15.5760   25.0650 C.3     1  UNL1       -0.0203
     21 C          18.9840  -14.8660   26.2870 C.3     1  UNL1        0.0646
     22 N          19.5730  -13.6340   25.8070 N.pl3   1  UNL1       -0.2787
     23 C          20.8420  -13.2690   25.7960 C.cat   1  UNL1        0.3410
     24 N          21.7820  -14.1420   26.1640 N.pl3   1  UNL1       -0.2919
     25 N          21.1400  -12.0610   25.3370 N.pl3   1  UNL1       -0.2919
     26 N          19.8480  -16.2860   22.9330 N.3     1  UNL1       -0.1780
     27 S          19.2030  -17.8930   22.1370 S.O2    1  UNL1        0.0596
     28 O          19.5740  -19.0190   23.0130 O.2     1  UNL1       -0.1530
     29 O          19.9240  -17.5610   20.8950 O.2     1  UNL1       -0.1530
     30 C          17.3480  -18.0250   22.4080 C.ar    1  UNL1        0.1130
     31 C          16.9280  -18.4940   23.6760 C.ar    1  UNL1       -0.0347
     32 C          15.5820  -18.5840   23.9200 C.ar    1  UNL1       -0.0593
     33 C          14.6640  -18.2010   22.9320 C.ar    1  UNL1       -0.0521
     34 C          15.0600  -17.7050   21.6960 C.ar    1  UNL1        0.0050
     35 C          14.1820  -17.2280   20.7610 C.ar    1  UNL1        0.0371
     36 C          16.4800  -17.6190   21.4200 C.ar    1  UNL1        0.0102
     37 C          14.6400  -16.7050   19.5700 C.ar    1  UNL1       -0.0401
     38 C          16.0240  -16.7050   19.3000 C.ar    1  UNL1       -0.0594
     39 C          16.9410  -17.1400   20.2240 C.ar    1  UNL1       -0.0520
     40 N          12.8240  -17.1170   21.0600 N.pl3   1  UNL1       -0.3355
     41 C          11.7990  -18.1020   20.6380 C.3     1  UNL1        0.0004
     42 C          12.0920  -15.6900   21.1550 C.3     1  UNL1        0.0004
     43 H          18.0904  -15.4394   21.9755 H       1  UNL1        0.0573
     44 H          17.3289  -14.1401   21.2896 H       1  UNL1        0.0500
     45 H          19.9397  -11.1705   20.7206 H       1  UNL1        0.0465
     46 H          21.2319  -12.3929   20.4799 H       1  UNL1        0.0465
     47 H          17.8133  -14.2378   18.8338 H       1  UNL1        0.0283
     48 H          16.4370  -13.0642   19.0527 H       1  UNL1        0.0283
     49 H          18.2253  -12.2172   17.3871 H       1  UNL1        0.0266
     50 H          17.9697  -11.1263   18.8326 H       1  UNL1        0.0266
     51 H          20.3780  -13.0122   18.3412 H       1  UNL1        0.0280
     52 H          20.3880  -11.2042   18.3924 H       1  UNL1        0.0280
     53 H          17.5109  -11.9719   22.2559 H       1  UNL1        0.0287
     54 H          17.1063  -11.4098   20.5431 H       1  UNL1        0.0287
     55 H          15.1729  -13.3616   21.0431 H       1  UNL1        0.0346
     56 H          15.2953  -12.5435   22.6165 H       1  UNL1        0.0346
     57 H          11.0295  -10.2027   23.7394 H       1  UNL1        0.0709
     58 H          10.9426  -12.5727   22.7417 H       1  UNL1        0.0835
     59 H          18.8734  -13.6733   24.1732 H       1  UNL1        0.0286
     60 H          17.2677  -14.3955   23.7060 H       1  UNL1        0.0286
     61 H          17.4115  -15.9577   25.2961 H       1  UNL1        0.0296
     62 H          19.0730  -16.4153   24.7907 H       1  UNL1        0.0296
     63 H          18.1815  -14.6487   27.0072 H       1  UNL1        0.0655
     64 H          19.7294  -15.4906   26.8011 H       1  UNL1        0.0655
     65 H          18.9104  -12.9467   25.4204 H       1  UNL1        0.2578
     66 H          22.7738  -13.8640   26.1578 H       1  UNL1        0.2545
     67 H          21.5157  -15.0937   26.4542 H       1  UNL1        0.2545
     68 H          22.1203  -11.7458   25.3150 H       1  UNL1        0.2545
     69 H          20.3911  -11.4380   25.0025 H       1  UNL1        0.2545
     70 H          20.7893  -16.0807   22.5686 H       1  UNL1        0.1489
     71 H          17.6617  -18.7785   24.4446 H       1  UNL1        0.0637
     72 H          15.2224  -18.9565   24.8905 H       1  UNL1        0.0618
     73 H          13.5888  -18.2969   23.1435 H       1  UNL1        0.0624
     74 H          13.9318  -16.2914   18.8369 H       1  UNL1        0.0636
     75 H          16.3784  -16.3466   18.3223 H       1  UNL1        0.0618
     76 H          18.0191  -17.1045   20.0085 H       1  UNL1        0.0624
     77 H          11.3328  -18.5501   21.5279 H       1  UNL1        0.0428
     78 H          11.0296  -17.5957   20.0365 H       1  UNL1        0.0428
     79 H          12.2743  -18.8909   20.0365 H       1  UNL1        0.0428
     80 H          11.9529  -15.4189   22.2120 H       1  UNL1        0.0428
     81 H          12.7101  -14.9271   20.6590 H       1  UNL1        0.0428
     82 H          11.1118  -15.7470   20.6590 H       1  UNL1        0.0428
@<TRIPOS>UNITY_ATOM_ATTR
24 1
charge 1
@<TRIPOS>BOND
     1     2     1    1
     2     3     2    2
     3     4     2   am
     4     5     4    1
     5     6     4    1
     6     7     5    1
     7     8     7    1
     8     9     8    1
     9     9     6    1
    10    10     5    1
    11    11    10    1
    12    12    11    1
    13    13    12    2
    14    14    12    1
    15    15    14   ar
    16    16    15   ar
    17    17    16   ar
    18    18    14   ar
    19    18    17   ar
    20    19     1    1
    21    20    19    1
    22    21    20    1
    23    22    21    1
    24    23    22    1
    25    24    23    2
    26    25    23    1
    27    26     1    1
    28    27    26    1
    29    28    27    2
    30    29    27    2
    31    30    27    1
    32    31    30   ar
    33    32    31   ar
    34    33    32   ar
    35    34    33   ar
    36    35    34   ar
    37    36    34   ar
    38    36    30   ar
    39    37    35   ar
    40    38    37   ar
    41    39    38   ar
    42    39    36   ar
    43    40    35    1
    44    41    40    1
    45    42    40    1
    46     1    43    1
    47     5    44    1
    48     6    45    1
    49     6    46    1
    50     7    47    1
    51     7    48    1
    52     8    49    1
    53     8    50    1
    54     9    51    1
    55     9    52    1
    56    10    53    1
    57    10    54    1
    58    11    55    1
    59    11    56    1
    60    16    57    1
    61    17    58    1
    62    19    59    1
    63    19    60    1
    64    20    61    1
    65    20    62    1
    66    21    63    1
    67    21    64    1
    68    22    65    1
    69    24    66    1
    70    24    67    1
    71    25    68    1
    72    25    69    1
    73    26    70    1
    74    31    71    1
    75    32    72    1
    76    33    73    1
    77    37    74    1
    78    38    75    1
    79    39    76    1
    80    41    77    1
    81    41    78    1
    82    41    79    1
    83    42    80    1
    84    42    81    1
    85    42    82    1
