@<TRIPOS>MOLECULE
CK4
 37 39 0 0 0
SMALL
GASTEIGER

@<TRIPOS>ATOM
      1 F          -1.4030   -0.7590   -6.3080 F       1  LIG1       -0.1659
      2 C          -0.1930   -0.0770   -6.1380 C.3     1  LIG1        0.4174
      3 F          -0.3240    1.2310   -6.6140 F       1  LIG1       -0.1659
      4 F           0.8150   -0.7340   -6.8500 F       1  LIG1       -0.1659
      5 C           0.1630   -0.0450   -4.6740 C.ar    1  LIG1        0.0549
      6 C           1.3250    0.5790   -4.2610 C.ar    1  LIG1       -0.0484
      7 C           1.6550    0.6100   -2.9200 C.ar    1  LIG1       -0.0399
      8 C          -0.6720   -0.6410   -3.7470 C.ar    1  LIG1       -0.0484
      9 C          -0.3450   -0.6180   -2.4050 C.ar    1  LIG1       -0.0399
     10 C           0.8170    0.0130   -1.9860 C.ar    1  LIG1        0.0336
     11 N           1.1480    0.0430   -0.6280 N.pl3   1  LIG1       -0.2836
     12 C           0.1480    0.1200    0.3260 C.ar    1  LIG1        0.2200
     13 N          -1.1080    0.2760   -0.0650 N.ar    1  LIG1       -0.2226
     14 C          -2.0940    0.3540    0.8150 C.ar    1  LIG1        0.0332
     15 C          -1.8040    0.2720    2.1630 C.ar    1  LIG1       -0.0168
     16 N           0.4720    0.0420    1.6070 N.ar    1  LIG1       -0.2137
     17 C          -0.4680    0.1080    2.5500 C.ar    1  LIG1        0.0844
     18 C          -0.1060    0.0160    3.9780 C.ar    1  LIG1        0.0603
     19 S          -1.1490    0.0800    5.4270 S.2     1  LIG1       -0.0706
     20 C           1.1250   -0.1430    4.5620 C.ar    1  LIG1        0.0549
     21 C           2.3730   -0.2520    3.7250 C.3     1  LIG1       -0.0212
     22 N           1.1840   -0.1930    5.8720 N.ar    1  LIG1       -0.2488
     23 C           0.1030   -0.1040    6.6150 C.ar    1  LIG1        0.0761
     24 C          -0.0160   -0.1450    8.1170 C.3     1  LIG1       -0.0159
     25 H           1.9750    1.0430   -4.9870 H       1  LIG1        0.0624
     26 H           2.5620    1.0990   -2.5980 H       1  LIG1        0.0636
     27 H          -1.5790   -1.1280   -4.0730 H       1  LIG1        0.0624
     28 H          -0.9980   -1.0830   -1.6820 H       1  LIG1        0.0636
     29 H           2.0780    0.0100   -0.3550 H       1  LIG1        0.1550
     30 H          -3.1130    0.4800    0.4830 H       1  LIG1        0.0831
     31 H          -2.5900    0.3330    2.9020 H       1  LIG1        0.0654
     32 H           2.7890    0.7410    3.5600 H       1  LIG1        0.0293
     33 H           3.1060   -0.8710    4.2430 H       1  LIG1        0.0293
     34 H           2.1280   -0.7070    2.7650 H       1  LIG1        0.0293
     35 H           0.9720   -0.2720    8.5570 H       1  LIG1        0.0298
     36 H          -0.4540    0.7870    8.4720 H       1  LIG1        0.0298
     37 H          -0.6540   -0.9800    8.4070 H       1  LIG1        0.0298
@<TRIPOS>BOND
     1     1     2    1
     2     2     3    1
     3     2     4    1
     4     2     5    1
     5     5     6   ar
     6     5     8   ar
     7     6     7   ar
     8     6    25    1
     9     7    10   ar
    10     7    26    1
    11     8     9   ar
    12     8    27    1
    13     9    10   ar
    14     9    28    1
    15    10    11    1
    16    11    12    1
    17    11    29    1
    18    12    13   ar
    19    12    16   ar
    20    13    14   ar
    21    14    15   ar
    22    14    30    1
    23    15    17   ar
    24    15    31    1
    25    16    17   ar
    26    17    18    1
    27    18    19   ar
    28    18    20   ar
    29    19    23   ar
    30    20    21    1
    31    20    22   ar
    32    21    32    1
    33    21    33    1
    34    21    34    1
    35    22    23   ar
    36    23    24    1
    37    24    35    1
    38    24    36    1
    39    24    37    1
