CK4
  -OEChem-02242319233D

 37 39  0     0  0  0  0  0  0999 V2000
   -1.4030   -0.7590   -6.3080 F   0  0  0  0  0  0  0  0  0  0  0  0
   -0.1930   -0.0770   -6.1380 C   0  0  0  0  0  0  0  0  0  0  0  0
   -0.3240    1.2310   -6.6140 F   0  0  0  0  0  0  0  0  0  0  0  0
    0.8150   -0.7340   -6.8500 F   0  0  0  0  0  0  0  0  0  0  0  0
    0.1630   -0.0450   -4.6740 C   0  0  0  0  0  0  0  0  0  0  0  0
    1.3250    0.5790   -4.2610 C   0  0  0  0  0  0  0  0  0  0  0  0
    1.6550    0.6100   -2.9200 C   0  0  0  0  0  0  0  0  0  0  0  0
   -0.6720   -0.6410   -3.7470 C   0  0  0  0  0  0  0  0  0  0  0  0
   -0.3450   -0.6180   -2.4050 C   0  0  0  0  0  0  0  0  0  0  0  0
    0.8170    0.0130   -1.9860 C   0  0  0  0  0  0  0  0  0  0  0  0
    1.1480    0.0430   -0.6280 N   0  0  0  0  0  0  0  0  0  0  0  0
    0.1480    0.1200    0.3260 C   0  0  0  0  0  0  0  0  0  0  0  0
   -1.1080    0.2760   -0.0650 N   0  0  0  0  0  0  0  0  0  0  0  0
   -2.0940    0.3540    0.8150 C   0  0  0  0  0  0  0  0  0  0  0  0
   -1.8040    0.2720    2.1630 C   0  0  0  0  0  0  0  0  0  0  0  0
    0.4720    0.0420    1.6070 N   0  0  0  0  0  0  0  0  0  0  0  0
   -0.4680    0.1080    2.5500 C   0  0  0  0  0  0  0  0  0  0  0  0
   -0.1060    0.0160    3.9780 C   0  0  0  0  0  0  0  0  0  0  0  0
   -1.1490    0.0800    5.4270 S   0  0  0  0  0  0  0  0  0  0  0  0
    1.1250   -0.1430    4.5620 C   0  0  0  0  0  0  0  0  0  0  0  0
    2.3730   -0.2520    3.7250 C   0  0  0  0  0  0  0  0  0  0  0  0
    1.1840   -0.1930    5.8720 N   0  0  0  0  0  0  0  0  0  0  0  0
    0.1030   -0.1040    6.6150 C   0  0  0  0  0  0  0  0  0  0  0  0
   -0.0160   -0.1450    8.1170 C   0  0  0  0  0  0  0  0  0  0  0  0
    1.9750    1.0430   -4.9870 H   0  0  0  0  0  0  0  0  0  0  0  0
    2.5620    1.0990   -2.5980 H   0  0  0  0  0  0  0  0  0  0  0  0
   -1.5790   -1.1280   -4.0730 H   0  0  0  0  0  0  0  0  0  0  0  0
   -0.9980   -1.0830   -1.6820 H   0  0  0  0  0  0  0  0  0  0  0  0
    2.0780    0.0100   -0.3550 H   0  0  0  0  0  0  0  0  0  0  0  0
   -3.1130    0.4800    0.4830 H   0  0  0  0  0  0  0  0  0  0  0  0
   -2.5900    0.3330    2.9020 H   0  0  0  0  0  0  0  0  0  0  0  0
    2.7890    0.7410    3.5600 H   0  0  0  0  0  0  0  0  0  0  0  0
    3.1060   -0.8710    4.2430 H   0  0  0  0  0  0  0  0  0  0  0  0
    2.1280   -0.7070    2.7650 H   0  0  0  0  0  0  0  0  0  0  0  0
    0.9720   -0.2720    8.5570 H   0  0  0  0  0  0  0  0  0  0  0  0
   -0.4540    0.7870    8.4720 H   0  0  0  0  0  0  0  0  0  0  0  0
   -0.6540   -0.9800    8.4070 H   0  0  0  0  0  0  0  0  0  0  0  0
  1  2  1  0  0  0  0
  2  3  1  0  0  0  0
  2  4  1  0  0  0  0
  2  5  1  0  0  0  0
  5  6  1  0  0  0  0
  5  8  2  0  0  0  0
  6  7  2  0  0  0  0
  6 25  1  0  0  0  0
  7 10  1  0  0  0  0
  7 26  1  0  0  0  0
  8  9  1  0  0  0  0
  8 27  1  0  0  0  0
  9 10  2  0  0  0  0
  9 28  1  0  0  0  0
 10 11  1  0  0  0  0
 11 12  1  0  0  0  0
 11 29  1  0  0  0  0
 12 13  1  0  0  0  0
 12 16  2  0  0  0  0
 13 14  2  0  0  0  0
 14 15  1  0  0  0  0
 14 30  1  0  0  0  0
 15 17  2  0  0  0  0
 15 31  1  0  0  0  0
 16 17  1  0  0  0  0
 17 18  1  0  0  0  0
 18 19  1  0  0  0  0
 18 20  2  0  0  0  0
 19 23  1  0  0  0  0
 20 21  1  0  0  0  0
 20 22  1  0  0  0  0
 21 32  1  0  0  0  0
 21 33  1  0  0  0  0
 21 34  1  0  0  0  0
 22 23  2  0  0  0  0
 23 24  1  0  0  0  0
 24 35  1  0  0  0  0
 24 36  1  0  0  0  0
 24 37  1  0  0  0  0
M  END
> <OPENEYE_ISO_SMILES>
Cc1c(sc(n1)C)c2ccnc(n2)Nc3ccc(cc3)C(F)(F)F

> <OPENEYE_INCHI>
InChI=1S/C16H13F3N4S/c1-9-14(24-10(2)21-9)13-7-8-20-15(23-13)22-12-5-3-11(4-6-12)16(17,18)19/h3-8H,1-2H3,(H,20,22,23)

> <OPENEYE_INCHIKEY>
MEZFDQUDLQCVNX-UHFFFAOYSA-N

> <FORMULA>
C16H13F3N4S

$$$$
