CK4
  Mrv15b2303062314062D          

 24 26  0  0  0  0            999 V2000
   -0.7142    4.2935    0.0000 F   0  0  0  0  0  0  0  0  0  0  0  0
   -0.7142    3.4685    0.0000 C   0  0  0  0  0  0  0  0  0  0  0  0
   -1.5392    3.4685    0.0000 F   0  0  0  0  0  0  0  0  0  0  0  0
    0.1108    3.4685    0.0000 F   0  0  0  0  0  0  0  0  0  0  0  0
   -0.7142    2.6435    0.0000 C   0  0  0  0  0  0  0  0  0  0  0  0
    0.0003    2.2310    0.0000 C   0  0  0  0  0  0  0  0  0  0  0  0
    0.0003    1.4060    0.0000 C   0  0  0  0  0  0  0  0  0  0  0  0
   -1.4286    2.2310    0.0000 C   0  0  0  0  0  0  0  0  0  0  0  0
   -1.4286    1.4060    0.0000 C   0  0  0  0  0  0  0  0  0  0  0  0
   -0.7142    0.9935    0.0000 C   0  0  0  0  0  0  0  0  0  0  0  0
   -0.7142    0.1685    0.0000 N   0  0  0  0  0  0  0  0  0  0  0  0
    0.0003   -0.2440    0.0000 C   0  0  0  0  0  0  0  0  0  0  0  0
    0.7148    0.1685    0.0000 N   0  0  0  0  0  0  0  0  0  0  0  0
    1.4293   -0.2440    0.0000 C   0  0  0  0  0  0  0  0  0  0  0  0
    1.4293   -1.0690    0.0000 C   0  0  0  0  0  0  0  0  0  0  0  0
    0.0003   -1.0690    0.0000 N   0  0  0  0  0  0  0  0  0  0  0  0
    0.7148   -1.4815    0.0000 C   0  0  0  0  0  0  0  0  0  0  0  0
    0.7148   -2.3065    0.0000 C   0  0  0  0  0  0  0  0  0  0  0  0
    1.3822   -2.7914    0.0000 S   0  0  0  0  0  0  0  0  0  0  0  0
    0.0473   -2.7914    0.0000 C   0  0  0  0  0  0  0  0  0  0  0  0
   -0.7373   -2.5365    0.0000 C   0  0  0  0  0  0  0  0  0  0  0  0
    0.3023   -3.5761    0.0000 N   0  0  0  0  0  0  0  0  0  0  0  0
    1.1273   -3.5761    0.0000 C   0  0  0  0  0  0  0  0  0  0  0  0
    1.6122   -4.2435    0.0000 C   0  0  0  0  0  0  0  0  0  0  0  0
  1  2  1  0  0  0  0
  2  3  1  0  0  0  0
  2  4  1  0  0  0  0
  2  5  1  0  0  0  0
  5  6  4  0  0  0  0
  5  8  4  0  0  0  0
  6  7  4  0  0  0  0
  7 10  4  0  0  0  0
  8  9  4  0  0  0  0
  9 10  4  0  0  0  0
 10 11  1  0  0  0  0
 11 12  1  0  0  0  0
 12 13  4  0  0  0  0
 12 16  4  0  0  0  0
 13 14  4  0  0  0  0
 14 15  4  0  0  0  0
 15 17  4  0  0  0  0
 16 17  4  0  0  0  0
 17 18  1  0  0  0  0
 18 19  4  0  0  0  0
 18 20  4  0  0  0  0
 19 23  4  0  0  0  0
 20 21  1  0  0  0  0
 20 22  4  0  0  0  0
 22 23  4  0  0  0  0
 23 24  1  0  0  0  0
M  END
