@<TRIPOS>MOLECULE
T4G
 36 38 0 0 0
SMALL
GASTEIGER

@<TRIPOS>ATOM
      1 N           2.6510   -2.3430    0.2440 N.ar    1  LIG1       -0.1129
      2 N           1.3680   -2.2580    0.2710 N.ar    1  LIG1       -0.1438
      3 C           0.7680   -1.0820    0.1270 C.ar    1  LIG1        0.1194
      4 C           1.5600    0.0700   -0.0550 C.ar    1  LIG1        0.1022
      5 N           2.8840   -0.0670   -0.0750 N.ar    1  LIG1       -0.2112
      6 C           3.4170   -1.2720    0.0740 C.ar    1  LIG1        0.2330
      7 N          -3.4400   -0.7960    0.2100 N.ar    1  LIG1       -0.2570
      8 C          -2.7220    0.1850    0.7230 C.ar    1  LIG1        0.0391
      9 C          -1.3440    0.1320    0.7170 C.ar    1  LIG1       -0.0313
     10 C          -0.7100   -0.9810    0.1560 C.ar    1  LIG1        0.0076
     11 C          -1.5100   -1.9980   -0.3760 C.ar    1  LIG1       -0.0313
     12 C          -2.8820   -1.8640   -0.3280 C.ar    1  LIG1        0.0391
     13 C          -0.2380    3.8920   -0.5290 C.ar    1  LIG1       -0.0617
     14 C           0.9640    3.7750    0.1470 C.ar    1  LIG1       -0.0611
     15 C           1.5520    2.5370    0.3050 C.ar    1  LIG1       -0.0525
     16 C           0.9330    1.4020   -0.2200 C.ar    1  LIG1        0.0026
     17 C          -0.2780    1.5270   -0.9000 C.ar    1  LIG1       -0.0525
     18 C          -0.8560    2.7700   -1.0510 C.ar    1  LIG1       -0.0611
     19 N           4.7930   -1.4140    0.0540 N.pl3   1  LIG1       -0.3262
     20 C          -3.7560   -2.9520   -0.8970 C.3     1  LIG1       -0.0223
     21 C          -3.4180    1.3800    1.3240 C.3     1  LIG1       -0.0223
     22 H          -0.7620    0.9400    1.1380 H       1  LIG1        0.0642
     23 H          -1.0600   -2.8740   -0.8180 H       1  LIG1        0.0642
     24 H          -0.6970    4.8630   -0.6450 H       1  LIG1        0.0618
     25 H           1.4420    4.6540    0.5530 H       1  LIG1        0.0618
     26 H           2.4900    2.4460    0.8320 H       1  LIG1        0.0624
     27 H          -0.7620    0.6520   -1.3080 H       1  LIG1        0.0624
     28 H          -1.7940    2.8680   -1.5780 H       1  LIG1        0.0618
     29 H           5.3600   -0.6370   -0.0700 H       1  LIG1        0.1452
     30 H           5.1910   -2.2920    0.1620 H       1  LIG1        0.1452
     31 H          -3.9800   -3.6820   -0.1190 H       1  LIG1        0.0292
     32 H          -4.6850   -2.5160   -1.2660 H       1  LIG1        0.0292
     33 H          -3.2340   -3.4440   -1.7180 H       1  LIG1        0.0292
     34 H          -3.5990    1.1990    2.3830 H       1  LIG1        0.0292
     35 H          -2.7890    2.2620    1.2070 H       1  LIG1        0.0292
     36 H          -4.3680    1.5410    0.8140 H       1  LIG1        0.0292
@<TRIPOS>BOND
     1    13    18   ar
     2    13    14   ar
     3    17    18   ar
     4    14    15   ar
     5    16    17   ar
     6    15    16   ar
     7     4    16    1
     8     6    19    1
     9     4     5   ar
    10     5     6   ar
    11     3     4   ar
    12     1     6   ar
    13     1     2   ar
    14     2     3   ar
    15     3    10    1
    16    10    11   ar
    17     9    10   ar
    18    11    12   ar
    19     8     9   ar
    20    12    20    1
    21     7    12   ar
    22     7     8   ar
    23     8    21    1
    24     9    22    1
    25    11    23    1
    26    13    24    1
    27    14    25    1
    28    15    26    1
    29    17    27    1
    30    18    28    1
    31    19    29    1
    32    19    30    1
    33    20    31    1
    34    20    32    1
    35    20    33    1
    36    21    34    1
    37    21    35    1
    38    21    36    1
