T4G
  Mrv15b2303062314282D          

 21 23  0  0  0  0            999 V2000
    1.3201   -1.6925    0.0000 N   0  0  0  0  0  0  0  0  0  0  0  0
    1.3201   -0.8675    0.0000 N   0  0  0  0  0  0  0  0  0  0  0  0
    0.6057   -0.4550    0.0000 C   0  0  0  0  0  0  0  0  0  0  0  0
   -0.1088   -0.8675    0.0000 C   0  0  0  0  0  0  0  0  0  0  0  0
   -0.1088   -1.6925    0.0000 N   0  0  0  0  0  0  0  0  0  0  0  0
    0.6057   -2.1050    0.0000 C   0  0  0  0  0  0  0  0  0  0  0  0
    0.6057    2.0200    0.0000 N   0  0  0  0  0  0  0  0  0  0  0  0
   -0.1088    1.6075    0.0000 C   0  0  0  0  0  0  0  0  0  0  0  0
   -0.1088    0.7825    0.0000 C   0  0  0  0  0  0  0  0  0  0  0  0
    0.6057    0.3700    0.0000 C   0  0  0  0  0  0  0  0  0  0  0  0
    1.3201    0.7825    0.0000 C   0  0  0  0  0  0  0  0  0  0  0  0
    1.3201    1.6075    0.0000 C   0  0  0  0  0  0  0  0  0  0  0  0
   -2.2522    0.3700    0.0000 C   0  0  0  0  0  0  0  0  0  0  0  0
   -2.2522   -0.4550    0.0000 C   0  0  0  0  0  0  0  0  0  0  0  0
   -1.5377   -0.8675    0.0000 C   0  0  0  0  0  0  0  0  0  0  0  0
   -0.8233   -0.4550    0.0000 C   0  0  0  0  0  0  0  0  0  0  0  0
   -0.8233    0.3700    0.0000 C   0  0  0  0  0  0  0  0  0  0  0  0
   -1.5377    0.7825    0.0000 C   0  0  0  0  0  0  0  0  0  0  0  0
    0.6057   -2.9300    0.0000 N   0  0  0  0  0  0  0  0  0  0  0  0
    2.0346    2.0200    0.0000 C   0  0  0  0  0  0  0  0  0  0  0  0
   -0.8233    2.0200    0.0000 C   0  0  0  0  0  0  0  0  0  0  0  0
 13 18  4  0  0  0  0
 13 14  4  0  0  0  0
 17 18  4  0  0  0  0
 14 15  4  0  0  0  0
 16 17  4  0  0  0  0
 15 16  4  0  0  0  0
  4 16  1  0  0  0  0
  6 19  1  0  0  0  0
  4  5  4  0  0  0  0
  5  6  4  0  0  0  0
  3  4  4  0  0  0  0
  1  6  4  0  0  0  0
  1  2  4  0  0  0  0
  2  3  4  0  0  0  0
  3 10  1  0  0  0  0
 10 11  4  0  0  0  0
  9 10  4  0  0  0  0
 11 12  4  0  0  0  0
  8  9  4  0  0  0  0
 12 20  1  0  0  0  0
  7 12  4  0  0  0  0
  7  8  4  0  0  0  0
  8 21  1  0  0  0  0
M  END
