T4G
  -OEChem-11232012343D

 36 38  0     0  0  0  0  0  0999 V2000
    2.6510   -2.3430    0.2440 N   0  0  0  0  0  0  0  0  0  0  0  0
    1.3680   -2.2580    0.2710 N   0  0  0  0  0  0  0  0  0  0  0  0
    0.7680   -1.0820    0.1270 C   0  0  0  0  0  0  0  0  0  0  0  0
    1.5600    0.0700   -0.0550 C   0  0  0  0  0  0  0  0  0  0  0  0
    2.8840   -0.0670   -0.0750 N   0  0  0  0  0  0  0  0  0  0  0  0
    3.4170   -1.2720    0.0740 C   0  0  0  0  0  0  0  0  0  0  0  0
   -3.4400   -0.7960    0.2100 N   0  0  0  0  0  0  0  0  0  0  0  0
   -2.7220    0.1850    0.7230 C   0  0  0  0  0  0  0  0  0  0  0  0
   -1.3440    0.1320    0.7170 C   0  0  0  0  0  0  0  0  0  0  0  0
   -0.7100   -0.9810    0.1560 C   0  0  0  0  0  0  0  0  0  0  0  0
   -1.5100   -1.9980   -0.3760 C   0  0  0  0  0  0  0  0  0  0  0  0
   -2.8820   -1.8640   -0.3280 C   0  0  0  0  0  0  0  0  0  0  0  0
   -0.2380    3.8920   -0.5290 C   0  0  0  0  0  0  0  0  0  0  0  0
    0.9640    3.7750    0.1470 C   0  0  0  0  0  0  0  0  0  0  0  0
    1.5520    2.5370    0.3050 C   0  0  0  0  0  0  0  0  0  0  0  0
    0.9330    1.4020   -0.2200 C   0  0  0  0  0  0  0  0  0  0  0  0
   -0.2780    1.5270   -0.9000 C   0  0  0  0  0  0  0  0  0  0  0  0
   -0.8560    2.7700   -1.0510 C   0  0  0  0  0  0  0  0  0  0  0  0
    4.7930   -1.4140    0.0540 N   0  0  0  0  0  0  0  0  0  0  0  0
   -3.7560   -2.9520   -0.8970 C   0  0  0  0  0  0  0  0  0  0  0  0
   -3.4180    1.3800    1.3240 C   0  0  0  0  0  0  0  0  0  0  0  0
   -0.7620    0.9400    1.1380 H   0  0  0  0  0  0  0  0  0  0  0  0
   -1.0600   -2.8740   -0.8180 H   0  0  0  0  0  0  0  0  0  0  0  0
   -0.6970    4.8630   -0.6450 H   0  0  0  0  0  0  0  0  0  0  0  0
    1.4420    4.6540    0.5530 H   0  0  0  0  0  0  0  0  0  0  0  0
    2.4900    2.4460    0.8320 H   0  0  0  0  0  0  0  0  0  0  0  0
   -0.7620    0.6520   -1.3080 H   0  0  0  0  0  0  0  0  0  0  0  0
   -1.7940    2.8680   -1.5780 H   0  0  0  0  0  0  0  0  0  0  0  0
    5.3600   -0.6370   -0.0700 H   0  0  0  0  0  0  0  0  0  0  0  0
    5.1910   -2.2920    0.1620 H   0  0  0  0  0  0  0  0  0  0  0  0
   -3.9800   -3.6820   -0.1190 H   0  0  0  0  0  0  0  0  0  0  0  0
   -4.6850   -2.5160   -1.2660 H   0  0  0  0  0  0  0  0  0  0  0  0
   -3.2340   -3.4440   -1.7180 H   0  0  0  0  0  0  0  0  0  0  0  0
   -3.5990    1.1990    2.3830 H   0  0  0  0  0  0  0  0  0  0  0  0
   -2.7890    2.2620    1.2070 H   0  0  0  0  0  0  0  0  0  0  0  0
   -4.3680    1.5410    0.8140 H   0  0  0  0  0  0  0  0  0  0  0  0
 13 18  2  0  0  0  0
 13 14  1  0  0  0  0
 17 18  1  0  0  0  0
 14 15  2  0  0  0  0
 16 17  2  0  0  0  0
 15 16  1  0  0  0  0
  4 16  1  0  0  0  0
  6 19  1  0  0  0  0
  4  5  2  0  0  0  0
  5  6  1  0  0  0  0
  3  4  1  0  0  0  0
  1  6  2  0  0  0  0
  1  2  1  0  0  0  0
  2  3  2  0  0  0  0
  3 10  1  0  0  0  0
 10 11  2  0  0  0  0
  9 10  1  0  0  0  0
 11 12  1  0  0  0  0
  8  9  2  0  0  0  0
 12 20  1  0  0  0  0
  7 12  2  0  0  0  0
  7  8  1  0  0  0  0
  8 21  1  0  0  0  0
  9 22  1  0  0  0  0
 11 23  1  0  0  0  0
 13 24  1  0  0  0  0
 14 25  1  0  0  0  0
 15 26  1  0  0  0  0
 17 27  1  0  0  0  0
 18 28  1  0  0  0  0
 19 29  1  0  0  0  0
 19 30  1  0  0  0  0
 20 31  1  0  0  0  0
 20 32  1  0  0  0  0
 20 33  1  0  0  0  0
 21 34  1  0  0  0  0
 21 35  1  0  0  0  0
 21 36  1  0  0  0  0
M  END
> <OPENEYE_ISO_SMILES>
Cc1cc(cc(n1)C)c2c(nc(nn2)N)c3ccccc3

> <OPENEYE_INCHI>
InChI=1S/C16H15N5/c1-10-8-13(9-11(2)18-10)15-14(19-16(17)21-20-15)12-6-4-3-5-7-12/h3-9H,1-2H3,(H2,17,19,21)

> <OPENEYE_INCHIKEY>
SORFNYWLKDSNNF-UHFFFAOYSA-N

> <FORMULA>
C16H15N5

$$$$
