@<TRIPOS>MOLECULE
SP3
 47 50 0 0 0
SMALL
GASTEIGER

@<TRIPOS>ATOM
      1 N           5.0080   -0.3640   38.7680 N.pl3   1  UNL1       -0.1993
      2 C           5.6210   -1.5190   39.0260 C.ar    1  UNL1        0.1420
      3 N           6.0950   -2.3430   38.0910 N.ar    1  UNL1       -0.2167
      4 N           6.5940   -3.3230   38.6480 N.ar    1  UNL1       -0.1641
      5 C           6.4670   -3.2040   39.9730 C.ar    1  UNL1        0.1016
      6 C           6.9490   -4.1130   40.9140 C.ar    1  UNL1        0.0393
      7 C           5.8390   -2.0580   40.2240 C.ar    1  UNL1        0.0078
      8 C           7.2280   -3.9610   42.2090 C.ar    1  UNL1       -0.0454
      9 S           7.4390   -5.7040   40.5330 S.2     1  UNL1       -0.0951
     10 C           7.7560   -5.0240   42.8330 C.ar    1  UNL1       -0.0541
     11 C           7.9710   -6.1120   42.0970 C.ar    1  UNL1       -0.0237
     12 C           6.0930   -2.1280   36.7740 C.ar    1  UNL1        0.0676
     13 C           7.1630   -1.4740   36.1680 C.ar    1  UNL1       -0.0335
     14 C           7.1650   -1.2320   34.8020 C.ar    1  UNL1       -0.0244
     15 C           6.0660   -1.6520   34.0600 C.ar    1  UNL1        0.1235
     16 C           4.9950   -2.3180   34.6420 C.ar    1  UNL1       -0.0244
     17 F           6.0190   -1.4300   32.7350 F       1  UNL1       -0.2055
     18 C           5.0120   -2.5410   36.0100 C.ar    1  UNL1       -0.0335
     19 S           3.4040   -0.0800   38.6490 S.O2    1  UNL1        0.0735
     20 O           2.6560   -1.2320   39.2400 O.2     1  UNL1       -0.1499
     21 O           3.1420    1.2110   39.3750 O.2     1  UNL1       -0.1499
     22 C           3.0330    0.2130   36.9980 C.ar    1  UNL1        0.1096
     23 C           4.0000    0.8940   36.2810 C.ar    1  UNL1       -0.0234
     24 C           3.7760    1.1380   34.9350 C.ar    1  UNL1        0.0572
     25 C           2.6090    0.6940   34.3130 C.ar    1  UNL1       -0.0384
     26 C           1.6440    0.0010   35.0510 C.ar    1  UNL1        0.0572
     27 C           1.8690   -0.2520   36.4020 C.ar    1  UNL1       -0.0234
     28 C           4.8870    1.8930   34.2230 C.3     1  UNL1        0.4175
     29 F           4.5370    3.1570   34.0640 F       1  UNL1       -0.1659
     30 F           6.0730    1.7460   34.7880 F       1  UNL1       -0.1659
     31 F           4.9750    1.3540   33.0320 F       1  UNL1       -0.1659
     32 C           0.3380   -0.4780   34.3850 C.3     1  UNL1        0.4175
     33 F           0.5790   -1.3050   33.3750 F       1  UNL1       -0.1659
     34 F          -0.4830   -1.2280   35.1260 F       1  UNL1       -0.1659
     35 F          -0.3360    0.6170   34.0270 F       1  UNL1       -0.1659
     36 H           5.6221    0.4507   38.6260 H       1  UNL1        0.1752
     37 H           5.5610   -1.6463   41.2055 H       1  UNL1        0.0674
     38 H           7.0355   -3.0152   42.7367 H       1  UNL1        0.0629
     39 H           8.0005   -4.9980   43.9052 H       1  UNL1        0.0623
     40 H           8.4002   -7.0690   42.4285 H       1  UNL1        0.0693
     41 H           8.0163   -1.1456   36.7796 H       1  UNL1        0.0640
     42 H           8.0119   -0.7223   34.3192 H       1  UNL1        0.0647
     43 H           4.1491   -2.6621   34.0287 H       1  UNL1        0.0647
     44 H           4.1634   -3.0483   36.4921 H       1  UNL1        0.0640
     45 H           4.9258    1.2343   36.7679 H       1  UNL1        0.0643
     46 H           2.4478    0.8889   33.2425 H       1  UNL1        0.0629
     47 H           1.1307   -0.8154   36.9915 H       1  UNL1        0.0643
@<TRIPOS>BOND
     1     2     1    1
     2     3     2   ar
     3     4     3   ar
     4     5     4   ar
     5     6     5    1
     6     7     5   ar
     7     7     2   ar
     8     8     6   ar
     9     9     6   ar
    10    10     8   ar
    11    11     9   ar
    12    11    10   ar
    13    12     3    1
    14    13    12   ar
    15    14    13   ar
    16    15    14   ar
    17    16    15   ar
    18    17    15    1
    19    18    16   ar
    20    18    12   ar
    21    19     1    1
    22    20    19    2
    23    21    19    2
    24    22    19    1
    25    23    22   ar
    26    24    23   ar
    27    25    24   ar
    28    26    25   ar
    29    27    26   ar
    30    27    22   ar
    31    28    24    1
    32    29    28    1
    33    30    28    1
    34    31    28    1
    35    32    26    1
    36    33    32    1
    37    34    32    1
    38    35    32    1
    39     1    36    1
    40     7    37    1
    41     8    38    1
    42    10    39    1
    43    11    40    1
    44    13    41    1
    45    14    42    1
    46    16    43    1
    47    18    44    1
    48    23    45    1
    49    25    46    1
    50    27    47    1
