B97
 OpenBabel09282215133D

 45 49  0  0  0  0  0  0  0  0999 V2000
   85.6690  259.1250  112.3980 C   0  0  0  0  0  0  0  0  0  0  0  0
   85.8470  260.2600  113.3760 C   0  0  2  0  0  0  0  0  0  0  0  0
   84.6170  261.1210  113.5720 C   0  0  0  0  0  0  0  0  0  0  0  0
   84.0920  261.6970  112.3350 N   0  0  0  0  0  0  0  0  0  0  0  0
   84.8350  262.1170  111.2610 C   0  0  0  0  0  0  0  0  0  0  0  0
   86.2140  262.2530  111.2820 C   0  0  0  0  0  0  0  0  0  0  0  0
   86.7780  262.8050  109.7720 S   0  0  0  0  0  0  0  0  0  0  0  0
   85.2000  262.8640  109.0940 C   0  0  0  0  0  0  0  0  0  0  0  0
   84.9290  263.2580  107.8070 C   0  0  0  0  0  0  0  0  0  0  0  0
   83.6220  263.2520  107.4020 C   0  0  0  0  0  0  0  0  0  0  0  0
   82.5970  262.8750  108.2210 C   0  0  0  0  0  0  0  0  0  0  0  0
   81.3450  262.9050  107.7420 N   0  0  0  0  0  0  0  0  0  0  0  0
   80.3490  262.5300  108.5500 C   0  0  0  0  0  0  0  0  0  0  0  0
   80.5830  262.1360  109.8410 C   0  0  0  0  0  0  0  0  0  0  0  0
   81.8680  262.1160  110.3180 C   0  0  0  0  0  0  0  0  0  0  0  0
   82.9120  262.4900  109.5070 C   0  0  0  0  0  0  0  0  0  0  0  0
   84.2260  262.4640  109.9980 C   0  0  0  0  0  0  0  0  0  0  0  0
   87.2240  262.0560  112.2760 C   0  0  0  0  0  0  0  0  0  0  0  0
   88.1720  262.8250  112.3830 O   0  0  0  0  0  0  0  0  0  0  0  0
   87.0660  260.9810  113.1160 N   0  0  0  0  0  0  0  0  0  0  0  0
   78.9710  262.5660  108.0880 C   0  0  0  0  0  0  0  0  0  0  0  0
   78.4700  263.6180  107.3600 C   0  0  0  0  0  0  0  0  0  0  0  0
   77.1360  263.6440  107.0080 C   0  0  0  0  0  0  0  0  0  0  0  0
   76.3170  262.6070  107.3870 C   0  0  0  0  0  0  0  0  0  0  0  0
   74.8750  262.6370  107.0060 C   0  0  0  0  0  0  0  0  0  0  0  0
   76.7590  261.5540  108.0790 N   0  0  0  0  0  0  0  0  0  0  0  0
   78.0590  261.5820  108.4050 C   0  0  0  0  0  0  0  0  0  0  0  0
   85.5216  258.1850  112.9500 H   0  0  0  0  0  0  0  0  0  0  0  0
   84.7905  259.3204  111.7655 H   0  0  0  0  0  0  0  0  0  0  0  0
   86.5651  259.0421  111.7655 H   0  0  0  0  0  0  0  0  0  0  0  0
   85.9663  259.8084  114.3719 H   0  0  0  0  0  0  0  0  0  0  0  0
   83.8299  260.5016  114.0266 H   0  0  0  0  0  0  0  0  0  0  0  0
   84.9164  261.9629  114.2135 H   0  0  0  0  0  0  0  0  0  0  0  0
   83.0693  261.7967  112.2633 H   0  0  0  0  0  0  0  0  0  0  0  0
   85.7346  263.5677  107.1251 H   0  0  0  0  0  0  0  0  0  0  0  0
   83.3875  263.5640  106.3736 H   0  0  0  0  0  0  0  0  0  0  0  0
   79.7462  261.8380  110.4899 H   0  0  0  0  0  0  0  0  0  0  0  0
   82.0638  261.7996  111.3531 H   0  0  0  0  0  0  0  0  0  0  0  0
   87.9082  260.6563  113.6123 H   0  0  0  0  0  0  0  0  0  0  0  0
   79.1337  264.4413  107.0571 H   0  0  0  0  0  0  0  0  0  0  0  0
   76.7314  264.4873  106.4291 H   0  0  0  0  0  0  0  0  0  0  0  0
   74.2558  262.6499  107.9151 H   0  0  0  0  0  0  0  0  0  0  0  0
   74.6717  263.5396  106.4110 H   0  0  0  0  0  0  0  0  0  0  0  0
   74.6343  261.7437  106.4110 H   0  0  0  0  0  0  0  0  0  0  0  0
   78.4383  260.7293  108.9873 H   0  0  0  0  0  0  0  0  0  0  0  0
  1 28  1  0  0  0  0
  1 29  1  0  0  0  0
  1 30  1  0  0  0  0
  2  1  1  0  0  0  0
  2 31  1  1  0  0  0
  3  2  1  0  0  0  0
  3 32  1  0  0  0  0
  3 33  1  0  0  0  0
  4  3  1  0  0  0  0
  4 34  1  0  0  0  0
  5  4  1  0  0  0  0
  6  5  2  0  0  0  0
  7  6  1  0  0  0  0
  8  7  1  0  0  0  0
  9  8  2  0  0  0  0
  9 35  1  0  0  0  0
 10  9  1  0  0  0  0
 10 36  1  0  0  0  0
 11 10  2  0  0  0  0
 12 11  1  0  0  0  0
 13 12  2  0  0  0  0
 14 13  1  0  0  0  0
 14 37  1  0  0  0  0
 15 14  2  0  0  0  0
 15 38  1  0  0  0  0
 16 11  1  0  0  0  0
 16 15  1  0  0  0  0
 17 16  2  0  0  0  0
 17  8  1  0  0  0  0
 17  5  1  0  0  0  0
 18  6  1  0  0  0  0
 19 18  2  0  0  0  0
 20  2  1  0  0  0  0
 20 18  1  0  0  0  0
 20 39  1  0  0  0  0
 21 13  1  0  0  0  0
 22 21  2  0  0  0  0
 22 40  1  0  0  0  0
 23 22  1  0  0  0  0
 23 41  1  0  0  0  0
 24 23  2  0  0  0  0
 25 24  1  0  0  0  0
 25 42  1  0  0  0  0
 25 43  1  0  0  0  0
 25 44  1  0  0  0  0
 26 24  1  0  0  0  0
 27 26  2  0  0  0  0
 27 21  1  0  0  0  0
 27 45  1  0  0  0  0
M  END
$$$$
