@<TRIPOS>MOLECULE
B97
 45 49 0 0 0
SMALL
GASTEIGER

@<TRIPOS>ATOM
      1 C          85.6690  259.1250  112.3980 C.3     1  UNL1       -0.0452
      2 C          85.8470  260.2600  113.3760 C.3     1  UNL1        0.0360
      3 C          84.6170  261.1210  113.5720 C.3     1  UNL1        0.0273
      4 N          84.0920  261.6970  112.3350 N.pl3   1  UNL1       -0.3406
      5 C          84.8350  262.1170  111.2610 C.ar    1  UNL1        0.0551
      6 C          86.2140  262.2530  111.2820 C.ar    1  UNL1        0.0958
      7 S          86.7780  262.8050  109.7720 S.2     1  UNL1       -0.0818
      8 C          85.2000  262.8640  109.0940 C.ar    1  UNL1        0.0226
      9 C          84.9290  263.2580  107.8070 C.ar    1  UNL1       -0.0453
     10 C          83.6220  263.2520  107.4020 C.ar    1  UNL1       -0.0346
     11 C          82.5970  262.8750  108.2210 C.ar    1  UNL1        0.0724
     12 N          81.3450  262.9050  107.7420 N.ar    1  UNL1       -0.2466
     13 C          80.3490  262.5300  108.5500 C.ar    1  UNL1        0.0731
     14 C          80.5830  262.1360  109.8410 C.ar    1  UNL1       -0.0350
     15 C          81.8680  262.1160  110.3180 C.ar    1  UNL1       -0.0499
     16 C          82.9120  262.4900  109.5070 C.ar    1  UNL1        0.0104
     17 C          84.2260  262.4640  109.9980 C.ar    1  UNL1        0.0200
     18 C          87.2240  262.0560  112.2760 C.2     1  UNL1        0.2528
     19 O          88.1720  262.8250  112.3830 O.2     1  UNL1       -0.2696
     20 N          87.0660  260.9810  113.1160 N.am    1  UNL1       -0.3068
     21 C          78.9710  262.5660  108.0880 C.ar    1  UNL1        0.0185
     22 C          78.4700  263.6180  107.3600 C.ar    1  UNL1       -0.0494
     23 C          77.1360  263.6440  107.0080 C.ar    1  UNL1       -0.0400
     24 C          76.3170  262.6070  107.3870 C.ar    1  UNL1        0.0382
     25 C          74.8750  262.6370  107.0060 C.3     1  UNL1       -0.0224
     26 N          76.7590  261.5540  108.0790 N.ar    1  UNL1       -0.2595
     27 C          78.0590  261.5820  108.4050 C.ar    1  UNL1        0.0370
     28 H          85.5216  258.1850  112.9500 H       1  UNL1        0.0248
     29 H          84.7905  259.3204  111.7655 H       1  UNL1        0.0248
     30 H          86.5651  259.0421  111.7655 H       1  UNL1        0.0248
     31 H          85.9663  259.8084  114.3719 H       1  UNL1        0.0511
     32 H          83.8299  260.5016  114.0266 H       1  UNL1        0.0479
     33 H          84.9164  261.9629  114.2135 H       1  UNL1        0.0479
     34 H          83.0693  261.7967  112.2633 H       1  UNL1        0.1462
     35 H          85.7346  263.5677  107.1251 H       1  UNL1        0.0629
     36 H          83.3875  263.5640  106.3736 H       1  UNL1        0.0639
     37 H          79.7462  261.8380  110.4899 H       1  UNL1        0.0639
     38 H          82.0638  261.7996  111.3531 H       1  UNL1        0.0625
     39 H          87.9082  260.6563  113.6123 H       1  UNL1        0.1494
     40 H          79.1337  264.4413  107.0571 H       1  UNL1        0.0625
     41 H          76.7314  264.4873  106.4291 H       1  UNL1        0.0636
     42 H          74.2558  262.6499  107.9151 H       1  UNL1        0.0292
     43 H          74.6717  263.5396  106.4110 H       1  UNL1        0.0292
     44 H          74.6343  261.7437  106.4110 H       1  UNL1        0.0292
     45 H          78.4383  260.7293  108.9873 H       1  UNL1        0.0836
@<TRIPOS>BOND
     1     2     1    1
     2     3     2    1
     3     4     3    1
     4     5     4    1
     5     6     5   ar
     6     7     6   ar
     7     8     7   ar
     8     9     8   ar
     9    10     9   ar
    10    11    10   ar
    11    12    11   ar
    12    13    12   ar
    13    14    13   ar
    14    15    14   ar
    15    16    11   ar
    16    16    15   ar
    17    17    16   ar
    18    17     8   ar
    19    17     5   ar
    20    18     6    1
    21    19    18    2
    22    20     2    1
    23    20    18   am
    24    21    13    1
    25    22    21   ar
    26    23    22   ar
    27    24    23   ar
    28    25    24    1
    29    26    24   ar
    30    27    26   ar
    31    27    21   ar
    32     1    28    1
    33     1    29    1
    34     1    30    1
    35     2    31    1
    36     3    32    1
    37     3    33    1
    38     4    34    1
    39     9    35    1
    40    10    36    1
    41    14    37    1
    42    15    38    1
    43    20    39    1
    44    22    40    1
    45    23    41    1
    46    25    42    1
    47    25    43    1
    48    25    44    1
    49    27    45    1
