@<TRIPOS>MOLECULE
E2M
 71 74 0 0 0
SMALL
GASTEIGER

@<TRIPOS>ATOM
      1 C         -19.8760   20.2560   -9.4440 C.ar    1  UNL1        0.0807
      2 C         -21.1200   20.8320   -9.2520 C.ar    1  UNL1        0.0251
      3 C         -21.9100   21.1610  -10.3460 C.ar    1  UNL1       -0.0469
      4 C         -21.4490   20.9110  -11.6330 C.ar    1  UNL1       -0.0530
      5 C         -20.1990   20.3320  -11.8210 C.ar    1  UNL1       -0.0126
      6 C         -19.4160   20.0060  -10.7260 C.ar    1  UNL1        0.0746
      7 S         -21.6780   21.1360   -7.6810 S.3     1  UNL1       -0.0852
      8 C         -23.1320   20.3020   -7.4260 C.ar    1  UNL1        0.0543
      9 C         -23.1130   19.0290   -6.8840 C.ar    1  UNL1        0.1342
     10 C         -24.3050   18.3440   -6.6750 C.ar    1  UNL1       -0.0188
     11 C         -25.5160   18.9370   -7.0100 C.ar    1  UNL1       -0.0582
     12 C         -25.5340   20.2160   -7.5540 C.ar    1  UNL1       -0.0605
     13 C         -24.3420   20.8980   -7.7630 C.ar    1  UNL1       -0.0445
     14 O         -21.9200   18.4430   -6.5530 O.3     1  UNL1       -0.4906
     15 C         -21.9000   17.2900   -5.7140 C.3     1  UNL1        0.0924
     16 C         -21.1530   17.6130   -4.4260 C.3     1  UNL1       -0.0067
     17 C         -19.8230   18.2750   -4.7600 C.3     1  UNL1       -0.0464
     18 C         -18.9260   17.3290   -5.5500 C.3     1  UNL1       -0.0398
     19 C         -18.6720   16.0420   -4.7740 C.3     1  UNL1        0.0563
     20 C         -20.0020   15.3800   -4.4390 C.3     1  UNL1       -0.0398
     21 C         -20.8990   16.3260   -3.6500 C.3     1  UNL1       -0.0464
     22 C         -17.7750   15.0970   -5.5640 C.2     1  UNL1        0.3078
     23 O         -17.5490   13.7640   -5.0910 O.2     1  UNL1       -0.2507
     24 O         -17.1080   15.5600   -6.7420 O.3     1  UNL1       -0.4804
     25 C         -19.0230   19.9020   -8.2620 C.3     1  UNL1        0.4190
     26 F         -18.7540   18.6100   -8.2850 F       1  UNL1       -0.1658
     27 F         -17.8960   20.5870   -8.3130 F       1  UNL1       -0.1658
     28 F         -19.6680   20.1970   -7.1500 F       1  UNL1       -0.1658
     29 C         -18.0680   19.3830  -10.9300 C.3     1  UNL1        0.4185
     30 F         -17.7760   19.3790  -12.2170 F       1  UNL1       -0.1659
     31 F         -18.0840   18.1430  -10.4780 F       1  UNL1       -0.1659
     32 F         -17.1580   20.0790  -10.2750 F       1  UNL1       -0.1659
     33 C         -19.7060   20.0650  -13.1900 C.2     1  UNL1       -0.0491
     34 C         -19.5730   21.0640  -14.0560 C.2     1  UNL1        0.0009
     35 C         -19.0810   20.7940  -15.4220 C.2     1  UNL1        0.2396
     36 N         -17.8320   21.1670  -15.6880 N.am    1  UNL1       -0.2936
     37 C         -17.0390   21.9510  -14.7530 C.3     1  UNL1        0.0385
     38 C         -17.1650   20.8210  -16.9330 C.3     1  UNL1        0.0385
     39 C         -15.8380   21.0730  -14.4230 C.3     1  UNL1        0.0635
     40 O         -15.1440   20.7430  -15.6240 O.3     1  UNL1       -0.3767
     41 C         -15.9600   19.9860  -16.5160 C.3     1  UNL1        0.0635
     42 O         -19.8040   20.2540  -16.2440 O.2     1  UNL1       -0.2706
     43 H         -22.8987   21.6186  -10.1940 H       1  UNL1        0.0629
     44 H         -22.0721   21.1708  -12.5015 H       1  UNL1        0.0624
     45 H         -24.2891   17.3320   -6.2442 H       1  UNL1        0.0654
     46 H         -26.4590   18.3952   -6.8450 H       1  UNL1        0.0619
     47 H         -26.4917   20.6879   -7.8189 H       1  UNL1        0.0618
     48 H         -24.3555   21.9095   -8.1951 H       1  UNL1        0.0630
     49 H         -22.9316   16.9924   -5.4749 H       1  UNL1        0.0699
     50 H         -21.3924   16.4653   -6.2357 H       1  UNL1        0.0699
     51 H         -21.7586   18.2977   -3.8141 H       1  UNL1        0.0334
     52 H         -20.0109   19.1777   -5.3599 H       1  UNL1        0.0269
     53 H         -19.3154   18.5364   -3.8198 H       1  UNL1        0.0269
     54 H         -19.4145   17.0832   -6.5044 H       1  UNL1        0.0273
     55 H         -17.9616   17.8272   -5.7279 H       1  UNL1        0.0273
     56 H         -18.1488   16.2860   -3.8377 H       1  UNL1        0.0413
     57 H         -20.5094   15.0988   -5.3736 H       1  UNL1        0.0273
     58 H         -19.8053   14.4892   -3.8244 H       1  UNL1        0.0273
     59 H         -21.8604   15.8292   -3.4529 H       1  UNL1        0.0269
     60 H         -20.3954   16.5800   -2.7056 H       1  UNL1        0.0269
     61 H         -16.5253   14.9455   -7.2548 H       1  UNL1        0.2951
     62 H         -19.4493   19.0387  -13.4913 H       1  UNL1        0.0625
     63 H         -19.8290   22.0908  -13.7558 H       1  UNL1        0.0670
     64 H         -16.7132   22.8934  -15.2175 H       1  UNL1        0.0487
     65 H         -17.6107   22.2247  -13.8540 H       1  UNL1        0.0487
     66 H         -17.8348   20.2366  -17.5810 H       1  UNL1        0.0487
     67 H         -16.8714   21.7128  -17.5062 H       1  UNL1        0.0487
     68 H         -15.1618   21.6164  -13.7466 H       1  UNL1        0.0575
     69 H         -16.1829   20.1499  -13.9343 H       1  UNL1        0.0575
     70 H         -16.3044   19.0713  -16.0113 H       1  UNL1        0.0575
     71 H         -15.3754   19.7144  -17.4073 H       1  UNL1        0.0575
@<TRIPOS>BOND
     1     2     1   ar
     2     3     2   ar
     3     4     3   ar
     4     5     4   ar
     5     6     5   ar
     6     6     1   ar
     7     7     2    1
     8     8     7    1
     9     9     8   ar
    10    10     9   ar
    11    11    10   ar
    12    12    11   ar
    13    13    12   ar
    14    13     8   ar
    15    14     9    1
    16    15    14    1
    17    16    15    1
    18    17    16    1
    19    18    17    1
    20    19    18    1
    21    20    19    1
    22    21    20    1
    23    21    16    1
    24    22    19    1
    25    23    22    2
    26    24    22    1
    27    25     1    1
    28    26    25    1
    29    27    25    1
    30    28    25    1
    31    29     6    1
    32    30    29    1
    33    31    29    1
    34    32    29    1
    35    33     5    1
    36    34    33    2
    37    35    34    1
    38    36    35   am
    39    37    36    1
    40    38    36    1
    41    39    37    1
    42    40    39    1
    43    41    38    1
    44    41    40    1
    45    42    35    2
    46     3    43    1
    47     4    44    1
    48    10    45    1
    49    11    46    1
    50    12    47    1
    51    13    48    1
    52    15    49    1
    53    15    50    1
    54    16    51    1
    55    17    52    1
    56    17    53    1
    57    18    54    1
    58    18    55    1
    59    19    56    1
    60    20    57    1
    61    20    58    1
    62    21    59    1
    63    21    60    1
    64    24    61    1
    65    33    62    1
    66    34    63    1
    67    37    64    1
    68    37    65    1
    69    38    66    1
    70    38    67    1
    71    39    68    1
    72    39    69    1
    73    41    70    1
    74    41    71    1
