E2M
 OpenBabel09202214523D

 71 74  0  0  0  0  0  0  0  0999 V2000
  -19.8760   20.2560   -9.4440 C   0  0  0  0  0  0  0  0  0  0  0  0
  -21.1200   20.8320   -9.2520 C   0  0  0  0  0  0  0  0  0  0  0  0
  -21.9100   21.1610  -10.3460 C   0  0  0  0  0  0  0  0  0  0  0  0
  -21.4490   20.9110  -11.6330 C   0  0  0  0  0  0  0  0  0  0  0  0
  -20.1990   20.3320  -11.8210 C   0  0  0  0  0  0  0  0  0  0  0  0
  -19.4160   20.0060  -10.7260 C   0  0  0  0  0  0  0  0  0  0  0  0
  -21.6780   21.1360   -7.6810 S   0  0  0  0  0  0  0  0  0  0  0  0
  -23.1320   20.3020   -7.4260 C   0  0  0  0  0  0  0  0  0  0  0  0
  -23.1130   19.0290   -6.8840 C   0  0  0  0  0  0  0  0  0  0  0  0
  -24.3050   18.3440   -6.6750 C   0  0  0  0  0  0  0  0  0  0  0  0
  -25.5160   18.9370   -7.0100 C   0  0  0  0  0  0  0  0  0  0  0  0
  -25.5340   20.2160   -7.5540 C   0  0  0  0  0  0  0  0  0  0  0  0
  -24.3420   20.8980   -7.7630 C   0  0  0  0  0  0  0  0  0  0  0  0
  -21.9200   18.4430   -6.5530 O   0  0  0  0  0  0  0  0  0  0  0  0
  -21.9000   17.2900   -5.7140 C   0  0  0  0  0  0  0  0  0  0  0  0
  -21.1530   17.6130   -4.4260 C   0  0  2  0  0  0  0  0  0  0  0  0
  -19.8230   18.2750   -4.7600 C   0  0  0  0  0  0  0  0  0  0  0  0
  -18.9260   17.3290   -5.5500 C   0  0  0  0  0  0  0  0  0  0  0  0
  -18.6720   16.0420   -4.7740 C   0  0  1  0  0  0  0  0  0  0  0  0
  -20.0020   15.3800   -4.4390 C   0  0  0  0  0  0  0  0  0  0  0  0
  -20.8990   16.3260   -3.6500 C   0  0  0  0  0  0  0  0  0  0  0  0
  -17.7750   15.0970   -5.5640 C   0  0  0  0  0  0  0  0  0  0  0  0
  -17.5490   13.7640   -5.0910 O   0  0  0  0  0  0  0  0  0  0  0  0
  -17.1080   15.5600   -6.7420 O   0  0  0  0  0  0  0  0  0  0  0  0
  -19.0230   19.9020   -8.2620 C   0  0  0  0  0  0  0  0  0  0  0  0
  -18.7540   18.6100   -8.2850 F   0  0  0  0  0  0  0  0  0  0  0  0
  -17.8960   20.5870   -8.3130 F   0  0  0  0  0  0  0  0  0  0  0  0
  -19.6680   20.1970   -7.1500 F   0  0  0  0  0  0  0  0  0  0  0  0
  -18.0680   19.3830  -10.9300 C   0  0  0  0  0  0  0  0  0  0  0  0
  -17.7760   19.3790  -12.2170 F   0  0  0  0  0  0  0  0  0  0  0  0
  -18.0840   18.1430  -10.4780 F   0  0  0  0  0  0  0  0  0  0  0  0
  -17.1580   20.0790  -10.2750 F   0  0  0  0  0  0  0  0  0  0  0  0
  -19.7060   20.0650  -13.1900 C   0  0  0  0  0  0  0  0  0  0  0  0
  -19.5730   21.0640  -14.0560 C   0  0  0  0  0  0  0  0  0  0  0  0
  -19.0810   20.7940  -15.4220 C   0  0  0  0  0  0  0  0  0  0  0  0
  -17.8320   21.1670  -15.6880 N   0  0  0  0  0  0  0  0  0  0  0  0
  -17.0390   21.9510  -14.7530 C   0  0  0  0  0  0  0  0  0  0  0  0
  -17.1650   20.8210  -16.9330 C   0  0  0  0  0  0  0  0  0  0  0  0
  -15.8380   21.0730  -14.4230 C   0  0  0  0  0  0  0  0  0  0  0  0
  -15.1440   20.7430  -15.6240 O   0  0  0  0  0  0  0  0  0  0  0  0
  -15.9600   19.9860  -16.5160 C   0  0  0  0  0  0  0  0  0  0  0  0
  -19.8040   20.2540  -16.2440 O   0  0  0  0  0  0  0  0  0  0  0  0
  -22.8987   21.6186  -10.1940 H   0  0  0  0  0  0  0  0  0  0  0  0
  -22.0721   21.1708  -12.5015 H   0  0  0  0  0  0  0  0  0  0  0  0
  -24.2891   17.3320   -6.2442 H   0  0  0  0  0  0  0  0  0  0  0  0
  -26.4590   18.3952   -6.8450 H   0  0  0  0  0  0  0  0  0  0  0  0
  -26.4917   20.6879   -7.8189 H   0  0  0  0  0  0  0  0  0  0  0  0
  -24.3555   21.9095   -8.1951 H   0  0  0  0  0  0  0  0  0  0  0  0
  -22.9316   16.9924   -5.4749 H   0  0  0  0  0  0  0  0  0  0  0  0
  -21.3924   16.4653   -6.2357 H   0  0  0  0  0  0  0  0  0  0  0  0
  -21.7586   18.2977   -3.8141 H   0  0  0  0  0  0  0  0  0  0  0  0
  -20.0109   19.1777   -5.3599 H   0  0  0  0  0  0  0  0  0  0  0  0
  -19.3154   18.5364   -3.8198 H   0  0  0  0  0  0  0  0  0  0  0  0
  -19.4145   17.0832   -6.5044 H   0  0  0  0  0  0  0  0  0  0  0  0
  -17.9616   17.8272   -5.7279 H   0  0  0  0  0  0  0  0  0  0  0  0
  -18.1488   16.2860   -3.8377 H   0  0  0  0  0  0  0  0  0  0  0  0
  -20.5094   15.0988   -5.3736 H   0  0  0  0  0  0  0  0  0  0  0  0
  -19.8053   14.4892   -3.8244 H   0  0  0  0  0  0  0  0  0  0  0  0
  -21.8604   15.8292   -3.4529 H   0  0  0  0  0  0  0  0  0  0  0  0
  -20.3954   16.5800   -2.7056 H   0  0  0  0  0  0  0  0  0  0  0  0
  -16.5253   14.9455   -7.2548 H   0  0  0  0  0  0  0  0  0  0  0  0
  -19.4493   19.0387  -13.4913 H   0  0  0  0  0  0  0  0  0  0  0  0
  -19.8290   22.0908  -13.7558 H   0  0  0  0  0  0  0  0  0  0  0  0
  -16.7132   22.8934  -15.2175 H   0  0  0  0  0  0  0  0  0  0  0  0
  -17.6107   22.2247  -13.8540 H   0  0  0  0  0  0  0  0  0  0  0  0
  -17.8348   20.2366  -17.5810 H   0  0  0  0  0  0  0  0  0  0  0  0
  -16.8714   21.7128  -17.5062 H   0  0  0  0  0  0  0  0  0  0  0  0
  -15.1618   21.6164  -13.7466 H   0  0  0  0  0  0  0  0  0  0  0  0
  -16.1829   20.1499  -13.9343 H   0  0  0  0  0  0  0  0  0  0  0  0
  -16.3044   19.0713  -16.0113 H   0  0  0  0  0  0  0  0  0  0  0  0
  -15.3754   19.7144  -17.4073 H   0  0  0  0  0  0  0  0  0  0  0  0
  2  1  2  0  0  0  0
  3  2  1  0  0  0  0
  3 43  1  0  0  0  0
  4  3  2  0  0  0  0
  4 44  1  0  0  0  0
  5  4  1  0  0  0  0
  6  5  2  0  0  0  0
  6  1  1  0  0  0  0
  7  2  1  0  0  0  0
  8  7  1  0  0  0  0
  9  8  1  0  0  0  0
 10  9  2  0  0  0  0
 10 45  1  0  0  0  0
 11 10  1  0  0  0  0
 11 46  1  0  0  0  0
 12 11  2  0  0  0  0
 12 47  1  0  0  0  0
 13 12  1  0  0  0  0
 13  8  2  0  0  0  0
 13 48  1  0  0  0  0
 14  9  1  0  0  0  0
 15 14  1  0  0  0  0
 15 49  1  0  0  0  0
 15 50  1  0  0  0  0
 16 15  1  0  0  0  0
 16 51  1  1  0  0  0
 17 16  1  0  0  0  0
 17 52  1  0  0  0  0
 17 53  1  0  0  0  0
 18 17  1  0  0  0  0
 18 54  1  0  0  0  0
 18 55  1  0  0  0  0
 19 18  1  0  0  0  0
 19 56  1  1  0  0  0
 20 19  1  0  0  0  0
 20 57  1  0  0  0  0
 20 58  1  0  0  0  0
 21 20  1  0  0  0  0
 21 16  1  0  0  0  0
 21 59  1  0  0  0  0
 21 60  1  0  0  0  0
 22 19  1  0  0  0  0
 23 22  2  0  0  0  0
 24 22  1  0  0  0  0
 24 61  1  0  0  0  0
 25  1  1  0  0  0  0
 26 25  1  0  0  0  0
 27 25  1  0  0  0  0
 28 25  1  0  0  0  0
 29  6  1  0  0  0  0
 30 29  1  0  0  0  0
 31 29  1  0  0  0  0
 32 29  1  0  0  0  0
 33  5  1  0  0  0  0
 33 62  1  0  0  0  0
 34 33  2  3  0  0  0
 34 63  1  0  0  0  0
 35 34  1  0  0  0  0
 36 35  1  0  0  0  0
 37 36  1  0  0  0  0
 37 64  1  0  0  0  0
 37 65  1  0  0  0  0
 38 36  1  0  0  0  0
 38 66  1  0  0  0  0
 38 67  1  0  0  0  0
 39 37  1  0  0  0  0
 39 68  1  0  0  0  0
 39 69  1  0  0  0  0
 40 39  1  0  0  0  0
 41 38  1  0  0  0  0
 41 40  1  0  0  0  0
 41 70  1  0  0  0  0
 41 71  1  0  0  0  0
 42 35  2  0  0  0  0
M  END
$$$$
