696
 OpenBabel11072215083D

 42 45  0  0  0  0  0  0  0  0999 V2000
   16.7340  -13.1900   21.4410 C   0  0  0  0  0  0  0  0  0  0  0  0
   13.2250  -11.8510   21.4360 C   0  0  0  0  0  0  0  0  0  0  0  0
   12.6050  -12.9920   20.8340 C   0  0  0  0  0  0  0  0  0  0  0  0
   13.3550  -14.0880   20.4200 C   0  0  0  0  0  0  0  0  0  0  0  0
   15.6350  -14.9300   20.3500 N   0  0  0  0  0  0  0  0  0  0  0  0
   14.7300  -14.0520   20.6090 C   0  0  0  0  0  0  0  0  0  0  0  0
   15.3170  -12.9520   21.1860 C   0  0  0  0  0  0  0  0  0  0  0  0
   14.6070  -11.8730   21.6210 C   0  0  0  0  0  0  0  0  0  0  0  0
   16.8070  -14.4640   20.7990 C   0  0  0  0  0  0  0  0  0  0  0  0
   18.0300  -15.0320   20.4850 C   0  0  0  0  0  0  0  0  0  0  0  0
   18.5770  -14.9060   19.2100 C   0  0  0  0  0  0  0  0  0  0  0  0
   17.8490  -14.2390   18.2510 O   0  5  0  0  0  0  0  0  0  0  0  0
   19.8120  -15.5180   18.8950 C   0  0  0  0  0  0  0  0  0  0  0  0
   20.4730  -16.2460   19.9020 C   0  0  0  0  0  0  0  0  0  0  0  0
   19.9560  -16.3360   21.1850 C   0  0  0  0  0  0  0  0  0  0  0  0
   18.7530  -15.7230   21.4890 C   0  0  0  0  0  0  0  0  0  0  0  0
   20.4530  -15.4320   17.6310 C   0  0  0  0  0  0  0  0  0  0  0  0
   20.8600  -14.2130   17.0760 C   0  0  0  0  0  0  0  0  0  0  0  0
   21.4490  -14.1670   15.8040 C   0  0  0  0  0  0  0  0  0  0  0  0
   21.6380  -15.3440   15.0630 C   0  0  0  0  0  0  0  0  0  0  0  0
   21.2510  -16.5660   15.6110 C   0  0  0  0  0  0  0  0  0  0  0  0
   20.6640  -16.6110   16.8800 C   0  0  0  0  0  0  0  0  0  0  0  0
   12.4430  -10.7470   21.7800 C   0  0  0  0  0  0  0  0  0  0  0  0
   12.0600  -10.5930   23.0270 N   0  3  0  0  0  0  0  0  0  0  0  0
   12.1460   -9.8390   20.8710 N   0  0  0  0  0  0  0  0  0  0  0  0
   17.4953  -12.5869   21.9575 H   0  0  0  0  0  0  0  0  0  0  0  0
   11.5137  -13.0024   20.6960 H   0  0  0  0  0  0  0  0  0  0  0  0
   12.8716  -14.9600   19.9553 H   0  0  0  0  0  0  0  0  0  0  0  0
   15.4838  -15.8336   19.8793 H   0  0  0  0  0  0  0  0  0  0  0  0
   15.1172  -11.0309   22.1114 H   0  0  0  0  0  0  0  0  0  0  0  0
   21.4196  -16.7541   19.6660 H   0  0  0  0  0  0  0  0  0  0  0  0
   20.5012  -16.8939   21.9605 H   0  0  0  0  0  0  0  0  0  0  0  0
   18.3565  -15.7723   22.5139 H   0  0  0  0  0  0  0  0  0  0  0  0
   20.7164  -13.2816   17.6434 H   0  0  0  0  0  0  0  0  0  0  0  0
   21.7653  -13.2009   15.3838 H   0  0  0  0  0  0  0  0  0  0  0  0
   22.0871  -15.3026   14.0597 H   0  0  0  0  0  0  0  0  0  0  0  0
   21.4074  -17.4961   15.0448 H   0  0  0  0  0  0  0  0  0  0  0  0
   20.3612  -17.5811   17.3010 H   0  0  0  0  0  0  0  0  0  0  0  0
   11.4828   -9.7821   23.2921 H   0  0  0  0  0  0  0  0  0  0  0  0
   12.3369  -11.2831   23.7397 H   0  0  0  0  0  0  0  0  0  0  0  0
   11.5689   -9.0248   21.1258 H   0  0  0  0  0  0  0  0  0  0  0  0
   12.4911   -9.9440   19.9062 H   0  0  0  0  0  0  0  0  0  0  0  0
  1 26  1  0  0  0  0
  3  2  1  0  0  0  0
  3 27  1  0  0  0  0
  4  3  2  0  0  0  0
  4 28  1  0  0  0  0
  5 29  1  0  0  0  0
  6  5  1  0  0  0  0
  6  4  1  0  0  0  0
  7  6  2  0  0  0  0
  7  1  1  0  0  0  0
  8  7  1  0  0  0  0
  8  2  2  0  0  0  0
  8 30  1  0  0  0  0
  9  5  1  0  0  0  0
  9  1  2  0  0  0  0
 10  9  1  0  0  0  0
 11 10  2  0  0  0  0
 12 11  1  0  0  0  0
 13 11  1  0  0  0  0
 14 13  2  0  0  0  0
 14 31  1  0  0  0  0
 15 14  1  0  0  0  0
 15 32  1  0  0  0  0
 16 15  2  0  0  0  0
 16 10  1  0  0  0  0
 16 33  1  0  0  0  0
 17 13  1  0  0  0  0
 18 17  2  0  0  0  0
 18 34  1  0  0  0  0
 19 18  1  0  0  0  0
 19 35  1  0  0  0  0
 20 19  2  0  0  0  0
 20 36  1  0  0  0  0
 21 20  1  0  0  0  0
 21 37  1  0  0  0  0
 22 21  2  0  0  0  0
 22 17  1  0  0  0  0
 22 38  1  0  0  0  0
 23  2  1  0  0  0  0
 24 23  2  0  0  0  0
 24 39  1  0  0  0  0
 24 40  1  0  0  0  0
 25 23  1  0  0  0  0
 25 41  1  0  0  0  0
 25 42  1  0  0  0  0
M  CHG  2  12  -1  24   1
M  END
$$$$
