@<TRIPOS>MOLECULE
696
 42 45 0 0 0
SMALL
GASTEIGER

@<TRIPOS>ATOM
      1 C          16.7340  -13.1900   21.4410 C.ar    1  UNL1       -0.0287
      2 C          13.2250  -11.8510   21.4360 C.ar    1  UNL1        0.0615
      3 C          12.6050  -12.9920   20.8340 C.ar    1  UNL1       -0.0451
      4 C          13.3550  -14.0880   20.4200 C.ar    1  UNL1       -0.0370
      5 N          15.6350  -14.9300   20.3500 N.ar    1  UNL1       -0.3542
      6 C          14.7300  -14.0520   20.6090 C.ar    1  UNL1        0.0470
      7 C          15.3170  -12.9520   21.1860 C.ar    1  UNL1        0.0011
      8 C          14.6070  -11.8730   21.6210 C.ar    1  UNL1       -0.0378
      9 C          16.8070  -14.4640   20.7990 C.ar    1  UNL1        0.0469
     10 C          18.0300  -15.0320   20.4850 C.ar    1  UNL1       -0.0088
     11 C          18.5770  -14.9060   19.2100 C.ar    1  UNL1       -0.0912
     12 O          17.8490  -14.2390   18.2510 O.co2   1  UNL1       -0.8728
     13 C          19.8120  -15.5180   18.8950 C.ar    1  UNL1       -0.0250
     14 C          20.4730  -16.2460   19.9020 C.ar    1  UNL1       -0.0546
     15 C          19.9560  -16.3360   21.1850 C.ar    1  UNL1       -0.0606
     16 C          18.7530  -15.7230   21.4890 C.ar    1  UNL1       -0.0532
     17 C          20.4530  -15.4320   17.6310 C.ar    1  UNL1       -0.0184
     18 C          20.8600  -14.2130   17.0760 C.ar    1  UNL1       -0.0540
     19 C          21.4490  -14.1670   15.8040 C.ar    1  UNL1       -0.0612
     20 C          21.6380  -15.3440   15.0630 C.ar    1  UNL1       -0.0617
     21 C          21.2510  -16.5660   15.6110 C.ar    1  UNL1       -0.0612
     22 C          20.6640  -16.6110   16.8800 C.ar    1  UNL1       -0.0540
     23 C          12.4430  -10.7470   21.7800 C.2     1  UNL1        0.2662
     24 N          12.0600  -10.5930   23.0270 N.2     1  UNL1       -0.2884
     25 N          12.1460   -9.8390   20.8710 N.pl3   1  UNL1       -0.2497
     26 H          17.4953  -12.5869   21.9575 H       1  UNL1        0.0645
     27 H          11.5137  -13.0024   20.6960 H       1  UNL1        0.0627
     28 H          12.8716  -14.9600   19.9553 H       1  UNL1        0.0638
     29 H          15.4838  -15.8336   19.8793 H       1  UNL1        0.1659
     30 H          15.1172  -11.0309   22.1114 H       1  UNL1        0.0632
     31 H          21.4196  -16.7541   19.6660 H       1  UNL1        0.0623
     32 H          20.5012  -16.8939   21.9605 H       1  UNL1        0.0618
     33 H          18.3565  -15.7723   22.5139 H       1  UNL1        0.0624
     34 H          20.7164  -13.2816   17.6434 H       1  UNL1        0.0624
     35 H          21.7653  -13.2009   15.3838 H       1  UNL1        0.0618
     36 H          22.0871  -15.3026   14.0597 H       1  UNL1        0.0618
     37 H          21.4074  -17.4961   15.0448 H       1  UNL1        0.0618
     38 H          20.3612  -17.5811   17.3010 H       1  UNL1        0.0624
     39 H          11.4828   -9.7821   23.2921 H       1  UNL1        0.3009
     40 H          12.3369  -11.2831   23.7397 H       1  UNL1        0.3009
     41 H          11.5689   -9.0248   21.1258 H       1  UNL1        0.2883
     42 H          12.4911   -9.9440   19.9062 H       1  UNL1        0.2883
@<TRIPOS>UNITY_ATOM_ATTR
12 1
charge -1
24 1
charge 1
@<TRIPOS>BOND
     1     3     2   ar
     2     4     3   ar
     3     6     5   ar
     4     6     4   ar
     5     7     6   ar
     6     7     1   ar
     7     8     7   ar
     8     8     2   ar
     9     9     5   ar
    10     9     1   ar
    11    10     9    1
    12    11    10   ar
    13    12    11    1
    14    13    11   ar
    15    14    13   ar
    16    15    14   ar
    17    16    15   ar
    18    16    10   ar
    19    17    13    1
    20    18    17   ar
    21    19    18   ar
    22    20    19   ar
    23    21    20   ar
    24    22    21   ar
    25    22    17   ar
    26    23     2    1
    27    24    23    2
    28    25    23    1
    29     1    26    1
    30     3    27    1
    31     4    28    1
    32     5    29    1
    33     8    30    1
    34    14    31    1
    35    15    32    1
    36    16    33    1
    37    18    34    1
    38    19    35    1
    39    20    36    1
    40    21    37    1
    41    22    38    1
    42    24    39    1
    43    24    40    1
    44    25    41    1
    45    25    42    1
