@<TRIPOS>MOLECULE
3BP
 78 80 0 0 0
SMALL
GASTEIGER

@<TRIPOS>ATOM
      1 O          35.9740    9.7880    4.4770 O.2     1  UNL1       -0.2740
      2 C          36.0650    9.0230    3.5190 C.2     1  UNL1        0.2326
      3 N          35.9700    9.3880    2.2190 N.am    1  UNL1       -0.3027
      4 C          36.3200    7.5170    3.7540 C.3     1  UNL1        0.1083
      5 C          35.5670    6.7730    2.6570 C.3     1  UNL1       -0.0022
      6 C          34.1220    6.6080    2.9920 C.ar    1  UNL1       -0.0453
      7 C          33.4510    5.3810    2.8000 C.ar    1  UNL1       -0.0579
      8 C          32.0930    5.2200    3.1600 C.ar    1  UNL1       -0.0538
      9 C          31.3380    6.2680    3.7250 C.ar    1  UNL1       -0.0179
     10 C          32.0010    7.4970    3.8730 C.ar    1  UNL1       -0.0538
     11 C          33.3580    7.6720    3.5230 C.ar    1  UNL1       -0.0579
     12 C          29.9310    6.0650    4.1410 C.ar    1  UNL1       -0.0179
     13 C          29.4170    4.7890    4.4220 C.ar    1  UNL1       -0.0540
     14 C          28.1160    4.6050    4.9600 C.ar    1  UNL1       -0.0612
     15 C          27.2700    5.6990    5.2250 C.ar    1  UNL1       -0.0617
     16 C          27.7510    6.9760    4.8790 C.ar    1  UNL1       -0.0612
     17 C          29.0540    7.1500    4.3490 C.ar    1  UNL1       -0.0540
     18 N          37.7540    7.2830    3.7130 N.3     1  UNL1       -0.1823
     19 S          38.4910    6.5020    5.0550 S.O2    1  UNL1        0.0298
     20 O          38.7000    7.5610    5.9810 O.2     1  UNL1       -0.1582
     21 O          37.5980    5.4330    5.3660 O.2     1  UNL1       -0.1582
     22 C          40.0310    5.8430    4.5230 C.3     1  UNL1        0.0789
     23 C          40.0670    4.3600    4.9380 C.3     1  UNL1       -0.0443
     24 C          35.6860   10.7650    1.8770 C.3     1  UNL1        0.0998
     25 C          36.9330   11.5020    1.4280 C.3     1  UNL1       -0.0177
     26 C          37.5790   12.3600    2.5250 C.3     1  UNL1        0.0259
     27 C          39.0700   12.1530    2.3870 C.2     1  UNL1        0.2106
     28 O          39.8250   12.2260    3.3510 O.2     1  UNL1       -0.2760
     29 N          39.4400   11.7940    1.1670 N.am    1  UNL1       -0.3293
     30 C          34.6280   10.7830    0.7480 C.2     1  UNL1        0.2336
     31 O          34.4780   11.7460   -0.0050 O.2     1  UNL1       -0.2738
     32 N          33.9210    9.6470    0.6810 N.am    1  UNL1       -0.3097
     33 C          32.8970    9.6010   -0.3270 C.3     1  UNL1        0.0369
     34 C          31.9000    8.5120   -0.0870 C.ar    1  UNL1       -0.0303
     35 C          32.2010    7.1750   -0.3750 C.ar    1  UNL1       -0.0563
     36 C          31.2290    6.1810   -0.1490 C.ar    1  UNL1       -0.0466
     37 C          29.9750    6.5120    0.4230 C.ar    1  UNL1        0.0647
     38 C          29.6840    7.8560    0.6790 C.ar    1  UNL1       -0.0466
     39 C          30.6370    8.8450    0.4320 C.ar    1  UNL1       -0.0563
     40 C          28.9910    5.4780    0.7510 C.2     1  UNL1        0.3081
     41 N          27.8030    5.7960    1.2460 N.2     1  UNL1       -0.0994
     42 N          29.2580    4.1900    0.5910 N.pl3   1  UNL1       -0.2466
     43 H          36.0938    8.7183    1.5080 H       1  UNL1        0.1495
     44 H          35.9734    7.1727    4.7060 H       1  UNL1        0.0576
     45 H          36.0060    5.8055    2.5303 H       1  UNL1        0.0334
     46 H          35.6367    7.3473    1.7569 H       1  UNL1        0.0334
     47 H          33.9623    4.5847    2.3882 H       1  UNL1        0.0620
     48 H          31.6400    4.3059    3.0041 H       1  UNL1        0.0624
     49 H          31.4775    8.3018    4.2514 H       1  UNL1        0.0624
     50 H          33.8003    8.5946    3.6576 H       1  UNL1        0.0620
     51 H          30.0021    3.9604    4.2319 H       1  UNL1        0.0624
     52 H          27.7833    3.6490    5.1611 H       1  UNL1        0.0618
     53 H          26.3399    5.5705    5.6533 H       1  UNL1        0.0618
     54 H          27.1443    7.7999    5.0136 H       1  UNL1        0.0618
     55 H          29.3715    8.1018    4.1074 H       1  UNL1        0.0624
     56 H          38.2053    8.1916    3.6072 H       1  UNL1        0.1485
     57 H          40.8357    6.3725    4.9889 H       1  UNL1        0.0513
     58 H          40.1371    5.9408    3.4628 H       1  UNL1        0.0513
     59 H          39.9595    4.2841    5.9999 H       1  UNL1        0.0246
     60 H          41.0009    3.9295    4.6423 H       1  UNL1        0.0246
     61 H          39.2656    3.8363    4.4601 H       1  UNL1        0.0246
     62 H          35.3167   11.2657    2.7475 H       1  UNL1        0.0595
     63 H          36.6704   12.1415    0.6113 H       1  UNL1        0.0292
     64 H          37.6510   10.7577    1.1534 H       1  UNL1        0.0292
     65 H          37.2467   12.0415    3.4909 H       1  UNL1        0.0359
     66 H          37.3142   13.3918    2.4244 H       1  UNL1        0.0359
     67 H          38.7754   11.7584    0.4415 H       1  UNL1        0.1449
     68 H          40.3796   11.5627    0.9856 H       1  UNL1        0.1449
     69 H          34.0924    8.8892    1.2857 H       1  UNL1        0.1491
     70 H          33.3597    9.4382   -1.2780 H       1  UNL1        0.0512
     71 H          32.3717   10.5327   -0.2972 H       1  UNL1        0.0512
     72 H          33.1280    6.9199   -0.7500 H       1  UNL1        0.0621
     73 H          31.4319    5.2014   -0.4025 H       1  UNL1        0.0626
     74 H          28.7585    8.1179    1.0530 H       1  UNL1        0.0626
     75 H          30.4119    9.8320    0.6327 H       1  UNL1        0.0621
     76 H          27.5631    6.7412    1.3813 H       1  UNL1        0.3633
     77 H          30.1284    3.9093    0.2264 H       1  UNL1        0.2884
     78 H          28.5860    3.5138    0.8367 H       1  UNL1        0.2884
@<TRIPOS>BOND
     1     2     1    2
     2     3     2   am
     3     4     2    1
     4     5     4    1
     5     6     5    1
     6     7     6   ar
     7     8     7   ar
     8     9     8   ar
     9    10     9   ar
    10    11    10   ar
    11    11     6   ar
    12    12     9    1
    13    13    12   ar
    14    14    13   ar
    15    15    14   ar
    16    16    15   ar
    17    17    16   ar
    18    17    12   ar
    19    18     4    1
    20    19    18    1
    21    20    19    2
    22    21    19    2
    23    22    19    1
    24    23    22    1
    25    24     3    1
    26    25    24    1
    27    26    25    1
    28    27    26    1
    29    28    27    2
    30    29    27   am
    31    30    24    1
    32    31    30    2
    33    32    30   am
    34    33    32    1
    35    34    33    1
    36    35    34   ar
    37    36    35   ar
    38    37    36   ar
    39    38    37   ar
    40    39    38   ar
    41    39    34   ar
    42    40    37    1
    43    41    40    2
    44    42    40    1
    45     3    43    1
    46     4    44    1
    47     5    45    1
    48     5    46    1
    49     7    47    1
    50     8    48    1
    51    10    49    1
    52    11    50    1
    53    13    51    1
    54    14    52    1
    55    15    53    1
    56    16    54    1
    57    17    55    1
    58    18    56    1
    59    22    57    1
    60    22    58    1
    61    23    59    1
    62    23    60    1
    63    23    61    1
    64    24    62    1
    65    25    63    1
    66    25    64    1
    67    26    65    1
    68    26    66    1
    69    29    67    1
    70    29    68    1
    71    32    69    1
    72    33    70    1
    73    33    71    1
    74    35    72    1
    75    36    73    1
    76    38    74    1
    77    39    75    1
    78    41    76    1
    79    42    77    1
    80    42    78    1
