@<TRIPOS>MOLECULE
598
 61 65 0 0 0
SMALL
GASTEIGER

@<TRIPOS>ATOM
      1 S          52.5700   10.4550    0.5180 S.2     1  UNL1       -0.0770
      2 C          51.9170    9.0310    1.2150 C.ar    1  UNL1        0.1393
      3 C          50.7830    8.5660    0.5960 C.ar    1  UNL1        0.1566
      4 C          50.4220    9.4300   -0.4720 C.ar    1  UNL1        0.0700
      5 C          51.2790   10.4810   -0.6290 C.ar    1  UNL1        0.0385
      6 S          49.1530    9.4530   -1.6510 S.2     1  UNL1       -0.0839
      7 C          49.8060   10.9070   -2.3290 C.ar    1  UNL1        0.0228
      8 C          50.9560   11.3660   -1.6900 C.ar    1  UNL1        0.0038
      9 C          49.2960   11.6280   -3.4280 C.ar    1  UNL1       -0.0265
     10 C          49.9240   12.8100   -3.8850 C.ar    1  UNL1        0.0284
     11 C          51.0830   13.2470   -3.2340 C.ar    1  UNL1       -0.0402
     12 C          51.6100   12.5400   -2.1400 C.ar    1  UNL1       -0.0507
     13 N          49.3560   13.4630   -4.9700 N.pl3   1  UNL1       -0.3409
     14 C          48.2200   14.3640   -4.8840 C.3     1  UNL1        0.0231
     15 C          46.9150   13.5360   -4.8320 C.3     1  UNL1       -0.0201
     16 C          45.7000   14.4490   -4.7000 C.3     1  UNL1        0.0218
     17 N          45.9020   15.3100   -3.4810 N.3     1  UNL1       -0.1807
     18 C          47.1250   16.1930   -3.5610 C.3     1  UNL1        0.0218
     19 C          48.3540   15.2920   -3.6670 C.3     1  UNL1       -0.0201
     20 S          44.4770   15.9440   -2.7270 S.O2    1  UNL1        0.0359
     21 O          43.7150   16.6860   -3.7130 O.2     1  UNL1       -0.1577
     22 O          44.8950   16.5930   -1.4940 O.2     1  UNL1       -0.1577
     23 C          43.6050   14.4250   -2.3280 C.3     1  UNL1        0.1069
     24 C          44.2710   13.7430   -1.1580 C.ar    1  UNL1       -0.0250
     25 C          45.1030   12.6260   -1.3640 C.ar    1  UNL1       -0.0570
     26 C          45.7300   11.9840   -0.2830 C.ar    1  UNL1       -0.0615
     27 C          45.5310   12.4600    1.0160 C.ar    1  UNL1       -0.0617
     28 C          44.7060   13.5730    1.2400 C.ar    1  UNL1       -0.0615
     29 C          44.0770   14.2120    0.1590 C.ar    1  UNL1       -0.0570
     30 O          50.0740    7.4620    0.9440 O.3     1  UNL1       -0.4783
     31 C          48.9140    7.7150    1.7490 C.3     1  UNL1        0.1858
     32 C          49.1660    7.0320    3.0930 C.2     1  UNL1        0.3427
     33 O          49.5420    7.7740    4.0390 O.2     1  UNL1       -0.2472
     34 O          48.9540    5.8020    3.1140 O.3     1  UNL1       -0.4783
     35 C          52.6740    8.3920    2.4270 C.2     1  UNL1        0.3471
     36 O          53.2100    9.1520    3.2910 O.2     1  UNL1       -0.2444
     37 O          52.6560    7.1300    2.4090 O.3     1  UNL1       -0.4767
     38 H          48.3927   11.2644   -3.9396 H       1  UNL1        0.0647
     39 H          51.5896   14.1584   -3.5842 H       1  UNL1        0.0636
     40 H          52.5220   12.8946   -1.6374 H       1  UNL1        0.0625
     41 H          49.7680   13.2974   -5.8994 H       1  UNL1        0.1463
     42 H          48.1904   15.0063   -5.7765 H       1  UNL1        0.0498
     43 H          46.8246   12.9466   -5.7563 H       1  UNL1        0.0296
     44 H          46.9536   12.8711   -3.9566 H       1  UNL1        0.0296
     45 H          45.6088   15.0824   -5.5947 H       1  UNL1        0.0444
     46 H          44.7804   13.8534   -4.6019 H       1  UNL1        0.0444
     47 H          47.0599   16.8408   -4.4476 H       1  UNL1        0.0444
     48 H          47.1949   16.8296   -2.6667 H       1  UNL1        0.0444
     49 H          49.2537   15.9146   -3.7806 H       1  UNL1        0.0296
     50 H          48.4355   14.6827   -2.7548 H       1  UNL1        0.0296
     51 H          42.5624   14.6604   -2.0679 H       1  UNL1        0.0565
     52 H          43.6282   13.7543   -3.1995 H       1  UNL1        0.0565
     53 H          45.2643   12.2508   -2.3854 H       1  UNL1        0.0621
     54 H          46.3749   11.1103   -0.4582 H       1  UNL1        0.0618
     55 H          46.0221   11.9612    1.8645 H       1  UNL1        0.0618
     56 H          44.5518   13.9454    2.2635 H       1  UNL1        0.0618
     57 H          43.4296   15.0828    0.3398 H       1  UNL1        0.0621
     58 H          48.7781    8.7972    1.8915 H       1  UNL1        0.0815
     59 H          48.0028    7.3284    1.2692 H       1  UNL1        0.0815
     60 H          49.0950    5.2896    3.9492 H       1  UNL1        0.2952
     61 H          53.1044    6.6182    3.1281 H       1  UNL1        0.2954
@<TRIPOS>BOND
     1     2     1   ar
     2     3     2   ar
     3     4     3   ar
     4     5     4   ar
     5     5     1   ar
     6     6     4   ar
     7     7     6   ar
     8     8     5   ar
     9     8     7   ar
    10     9     7   ar
    11    10     9   ar
    12    11    10   ar
    13    12    11   ar
    14    12     8   ar
    15    13    10    1
    16    14    13    1
    17    15    14    1
    18    16    15    1
    19    17    16    1
    20    18    17    1
    21    19    18    1
    22    19    14    1
    23    20    17    1
    24    21    20    2
    25    22    20    2
    26    23    20    1
    27    24    23    1
    28    25    24   ar
    29    26    25   ar
    30    27    26   ar
    31    28    27   ar
    32    29    28   ar
    33    29    24   ar
    34    30     3    1
    35    31    30    1
    36    32    31    1
    37    33    32    2
    38    34    32    1
    39    35     2    1
    40    36    35    2
    41    37    35    1
    42     9    38    1
    43    11    39    1
    44    12    40    1
    45    13    41    1
    46    14    42    1
    47    15    43    1
    48    15    44    1
    49    16    45    1
    50    16    46    1
    51    18    47    1
    52    18    48    1
    53    19    49    1
    54    19    50    1
    55    23    51    1
    56    23    52    1
    57    25    53    1
    58    26    54    1
    59    27    55    1
    60    28    56    1
    61    29    57    1
    62    31    58    1
    63    31    59    1
    64    34    60    1
    65    37    61    1
