598
 OpenBabel11032216593D

 61 65  0  0  0  0  0  0  0  0999 V2000
   52.5700   10.4550    0.5180 S   0  0  0  0  0  0  0  0  0  0  0  0
   51.9170    9.0310    1.2150 C   0  0  0  0  0  0  0  0  0  0  0  0
   50.7830    8.5660    0.5960 C   0  0  0  0  0  0  0  0  0  0  0  0
   50.4220    9.4300   -0.4720 C   0  0  0  0  0  0  0  0  0  0  0  0
   51.2790   10.4810   -0.6290 C   0  0  0  0  0  0  0  0  0  0  0  0
   49.1530    9.4530   -1.6510 S   0  0  0  0  0  0  0  0  0  0  0  0
   49.8060   10.9070   -2.3290 C   0  0  0  0  0  0  0  0  0  0  0  0
   50.9560   11.3660   -1.6900 C   0  0  0  0  0  0  0  0  0  0  0  0
   49.2960   11.6280   -3.4280 C   0  0  0  0  0  0  0  0  0  0  0  0
   49.9240   12.8100   -3.8850 C   0  0  0  0  0  0  0  0  0  0  0  0
   51.0830   13.2470   -3.2340 C   0  0  0  0  0  0  0  0  0  0  0  0
   51.6100   12.5400   -2.1400 C   0  0  0  0  0  0  0  0  0  0  0  0
   49.3560   13.4630   -4.9700 N   0  0  0  0  0  0  0  0  0  0  0  0
   48.2200   14.3640   -4.8840 C   0  0  0  0  0  0  0  0  0  0  0  0
   46.9150   13.5360   -4.8320 C   0  0  0  0  0  0  0  0  0  0  0  0
   45.7000   14.4490   -4.7000 C   0  0  0  0  0  0  0  0  0  0  0  0
   45.9020   15.3100   -3.4810 N   0  0  0  0  0  0  0  0  0  0  0  0
   47.1250   16.1930   -3.5610 C   0  0  0  0  0  0  0  0  0  0  0  0
   48.3540   15.2920   -3.6670 C   0  0  0  0  0  0  0  0  0  0  0  0
   44.4770   15.9440   -2.7270 S   0  0  0  0  0  0  0  0  0  0  0  0
   43.7150   16.6860   -3.7130 O   0  0  0  0  0  0  0  0  0  0  0  0
   44.8950   16.5930   -1.4940 O   0  0  0  0  0  0  0  0  0  0  0  0
   43.6050   14.4250   -2.3280 C   0  0  0  0  0  0  0  0  0  0  0  0
   44.2710   13.7430   -1.1580 C   0  0  0  0  0  0  0  0  0  0  0  0
   45.1030   12.6260   -1.3640 C   0  0  0  0  0  0  0  0  0  0  0  0
   45.7300   11.9840   -0.2830 C   0  0  0  0  0  0  0  0  0  0  0  0
   45.5310   12.4600    1.0160 C   0  0  0  0  0  0  0  0  0  0  0  0
   44.7060   13.5730    1.2400 C   0  0  0  0  0  0  0  0  0  0  0  0
   44.0770   14.2120    0.1590 C   0  0  0  0  0  0  0  0  0  0  0  0
   50.0740    7.4620    0.9440 O   0  0  0  0  0  0  0  0  0  0  0  0
   48.9140    7.7150    1.7490 C   0  0  0  0  0  0  0  0  0  0  0  0
   49.1660    7.0320    3.0930 C   0  0  0  0  0  0  0  0  0  0  0  0
   49.5420    7.7740    4.0390 O   0  0  0  0  0  0  0  0  0  0  0  0
   48.9540    5.8020    3.1140 O   0  0  0  0  0  0  0  0  0  0  0  0
   52.6740    8.3920    2.4270 C   0  0  0  0  0  0  0  0  0  0  0  0
   53.2100    9.1520    3.2910 O   0  0  0  0  0  0  0  0  0  0  0  0
   52.6560    7.1300    2.4090 O   0  0  0  0  0  0  0  0  0  0  0  0
   48.3927   11.2644   -3.9396 H   0  0  0  0  0  0  0  0  0  0  0  0
   51.5896   14.1584   -3.5842 H   0  0  0  0  0  0  0  0  0  0  0  0
   52.5220   12.8946   -1.6374 H   0  0  0  0  0  0  0  0  0  0  0  0
   49.7680   13.2974   -5.8994 H   0  0  0  0  0  0  0  0  0  0  0  0
   48.1904   15.0063   -5.7765 H   0  0  0  0  0  0  0  0  0  0  0  0
   46.8246   12.9466   -5.7563 H   0  0  0  0  0  0  0  0  0  0  0  0
   46.9536   12.8711   -3.9566 H   0  0  0  0  0  0  0  0  0  0  0  0
   45.6088   15.0824   -5.5947 H   0  0  0  0  0  0  0  0  0  0  0  0
   44.7804   13.8534   -4.6019 H   0  0  0  0  0  0  0  0  0  0  0  0
   47.0599   16.8408   -4.4476 H   0  0  0  0  0  0  0  0  0  0  0  0
   47.1949   16.8296   -2.6667 H   0  0  0  0  0  0  0  0  0  0  0  0
   49.2537   15.9146   -3.7806 H   0  0  0  0  0  0  0  0  0  0  0  0
   48.4355   14.6827   -2.7548 H   0  0  0  0  0  0  0  0  0  0  0  0
   42.5624   14.6604   -2.0679 H   0  0  0  0  0  0  0  0  0  0  0  0
   43.6282   13.7543   -3.1995 H   0  0  0  0  0  0  0  0  0  0  0  0
   45.2643   12.2508   -2.3854 H   0  0  0  0  0  0  0  0  0  0  0  0
   46.3749   11.1103   -0.4582 H   0  0  0  0  0  0  0  0  0  0  0  0
   46.0221   11.9612    1.8645 H   0  0  0  0  0  0  0  0  0  0  0  0
   44.5518   13.9454    2.2635 H   0  0  0  0  0  0  0  0  0  0  0  0
   43.4296   15.0828    0.3398 H   0  0  0  0  0  0  0  0  0  0  0  0
   48.7781    8.7972    1.8915 H   0  0  0  0  0  0  0  0  0  0  0  0
   48.0028    7.3284    1.2692 H   0  0  0  0  0  0  0  0  0  0  0  0
   49.0950    5.2896    3.9492 H   0  0  0  0  0  0  0  0  0  0  0  0
   53.1044    6.6182    3.1281 H   0  0  0  0  0  0  0  0  0  0  0  0
  2  1  1  0  0  0  0
  3  2  2  0  0  0  0
  4  3  1  0  0  0  0
  5  4  2  0  0  0  0
  5  1  1  0  0  0  0
  6  4  1  0  0  0  0
  7  6  1  0  0  0  0
  8  5  1  0  0  0  0
  8  7  2  0  0  0  0
  9  7  1  0  0  0  0
  9 38  1  0  0  0  0
 10  9  2  0  0  0  0
 11 10  1  0  0  0  0
 11 39  1  0  0  0  0
 12 11  2  0  0  0  0
 12  8  1  0  0  0  0
 12 40  1  0  0  0  0
 13 10  1  0  0  0  0
 13 41  1  0  0  0  0
 14 13  1  0  0  0  0
 14 42  1  0  0  0  0
 15 14  1  0  0  0  0
 15 43  1  0  0  0  0
 15 44  1  0  0  0  0
 16 15  1  0  0  0  0
 16 45  1  0  0  0  0
 16 46  1  0  0  0  0
 17 16  1  0  0  0  0
 18 17  1  0  0  0  0
 18 47  1  0  0  0  0
 18 48  1  0  0  0  0
 19 18  1  0  0  0  0
 19 14  1  0  0  0  0
 19 49  1  0  0  0  0
 19 50  1  0  0  0  0
 20 17  1  0  0  0  0
 21 20  2  0  0  0  0
 22 20  2  0  0  0  0
 23 20  1  0  0  0  0
 23 51  1  0  0  0  0
 23 52  1  0  0  0  0
 24 23  1  0  0  0  0
 25 24  2  0  0  0  0
 25 53  1  0  0  0  0
 26 25  1  0  0  0  0
 26 54  1  0  0  0  0
 27 26  2  0  0  0  0
 27 55  1  0  0  0  0
 28 27  1  0  0  0  0
 28 56  1  0  0  0  0
 29 28  2  0  0  0  0
 29 24  1  0  0  0  0
 29 57  1  0  0  0  0
 30  3  1  0  0  0  0
 31 30  1  0  0  0  0
 31 58  1  0  0  0  0
 31 59  1  0  0  0  0
 32 31  1  0  0  0  0
 33 32  2  0  0  0  0
 34 32  1  0  0  0  0
 34 60  1  0  0  0  0
 35  2  1  0  0  0  0
 36 35  2  0  0  0  0
 37 35  1  0  0  0  0
 37 61  1  0  0  0  0
M  END
$$$$
