@<TRIPOS>MOLECULE
306
 57 62 0 0 0
SMALL
GASTEIGER

@<TRIPOS>ATOM
      1 C         -11.7340   -5.3050   -1.8290 C.ar    1  LIG1        0.0568
      2 C         -12.3090   -4.9060   -0.6130 C.ar    1  LIG1        0.0193
      3 C         -13.2410   -5.8690   -0.3300 C.ar    1  LIG1        0.0300
      4 N         -13.1730   -6.7600   -1.3600 N.ar    1  LIG1       -0.2841
      5 N         -12.2600   -6.4420   -2.2940 N.ar    1  LIG1       -0.1817
      6 C          -7.6470    0.1980    1.9990 C.ar    1  LIG1        0.0527
      7 C          -6.9660    0.8730    2.9860 C.ar    1  LIG1       -0.0285
      8 N          -6.8400    0.1400    0.8950 N.ar    1  LIG1       -0.3540
      9 C          -5.6960    1.2410    2.4610 C.ar    1  LIG1        0.0006
     10 C          -5.6420    0.7690    1.1480 C.ar    1  LIG1        0.0469
     11 C          -4.5260    0.9540    0.3240 C.ar    1  LIG1       -0.0375
     12 C          -3.4340    1.6430    0.8590 C.ar    1  LIG1       -0.0554
     13 C          -3.4670    2.1210    2.1630 C.ar    1  LIG1       -0.0327
     14 C          -4.5830    1.9330    2.9790 C.ar    1  LIG1       -0.0482
     15 C          -2.2770    2.8570    2.7080 C.3     1  LIG1        0.0241
     16 C         -12.0510   -3.7680    0.2250 C.ar    1  LIG1       -0.0143
     17 C         -13.0780   -3.2300    1.0020 C.ar    1  LIG1       -0.0520
     18 C         -12.8330   -2.1240    1.8150 C.ar    1  LIG1       -0.0371
     19 C         -10.7750   -3.2030    0.2600 C.ar    1  LIG1       -0.0448
     20 C         -10.5220   -2.0940    1.0740 C.ar    1  LIG1       -0.0003
     21 C         -11.5560   -1.5620    1.8470 C.ar    1  LIG1        0.0492
     22 N         -11.3010   -0.4480    2.6610 N.ar    1  LIG1       -0.3216
     23 C         -10.0690    0.1720    2.7490 C.ar    1  LIG1        0.2583
     24 C          -8.9500   -0.4120    1.9230 C.ar    1  LIG1        0.0632
     25 C          -9.2000   -1.4770    1.1400 C.ar    1  LIG1       -0.0383
     26 O          -9.8830    1.1600    3.4600 O.2     1  LIG1       -0.2672
     27 N          -2.6660    4.0680    3.4310 N.3     1  LIG1       -0.2982
     28 C          -3.3900    4.9870    2.5420 C.3     1  LIG1       -0.0008
     29 C          -3.8470    6.2370    3.2950 C.3     1  LIG1       -0.0402
     30 C          -2.6730    6.9410    3.9650 C.3     1  LIG1       -0.0507
     31 C          -1.8800    5.9580    4.8200 C.3     1  LIG1       -0.0402
     32 C          -1.4850    4.7170    4.0180 C.3     1  LIG1       -0.0008
     33 H         -10.9560   -4.8220   -2.4030 H       1  LIG1        0.0854
     34 H         -13.9330   -6.0070    0.4890 H       1  LIG1        0.0830
     35 H         -13.7150   -7.6050   -1.4880 H       1  LIG1        0.1882
     36 H          -7.3390    1.0830    3.9800 H       1  LIG1        0.0645
     37 H          -7.0800   -0.2990    0.0160 H       1  LIG1        0.1659
     38 H          -4.5050    0.5790   -0.6940 H       1  LIG1        0.0638
     39 H          -2.5560    1.7990    0.2370 H       1  LIG1        0.0621
     40 H          -4.5980    2.3110    3.9980 H       1  LIG1        0.0627
     41 H          -1.7110    2.2200    3.3960 H       1  LIG1        0.0476
     42 H          -1.5950    3.1520    1.9030 H       1  LIG1        0.0476
     43 H         -14.0690   -3.6740    0.9690 H       1  LIG1        0.0624
     44 H         -13.6400   -1.7120    2.4150 H       1  LIG1        0.0638
     45 H          -9.9900   -3.6380   -0.3520 H       1  LIG1        0.0630
     46 H         -12.0690   -0.0750    3.2110 H       1  LIG1        0.1689
     47 H          -8.4130   -1.9160    0.5320 H       1  LIG1        0.0632
     48 H          -4.2760    4.4840    2.1370 H       1  LIG1        0.0427
     49 H          -2.7620    5.2780    1.6890 H       1  LIG1        0.0427
     50 H          -4.5880    5.9580    4.0550 H       1  LIG1        0.0278
     51 H          -4.3440    6.9260    2.6020 H       1  LIG1        0.0278
     52 H          -2.0170    7.3710    3.1980 H       1  LIG1        0.0266
     53 H          -3.0330    7.7710    4.5820 H       1  LIG1        0.0266
     54 H          -0.9810    6.4490    5.2090 H       1  LIG1        0.0278
     55 H          -2.4830    5.6600    5.6870 H       1  LIG1        0.0278
     56 H          -0.7640    4.9930    3.2380 H       1  LIG1        0.0427
     57 H          -0.9810    4.0160    4.6940 H       1  LIG1        0.0427
@<TRIPOS>BOND
     1     1     2   ar
     2     1     5   ar
     3     1    33    1
     4     2    16    1
     5     2     3   ar
     6     3     4   ar
     7     3    34    1
     8     4     5   ar
     9     4    35    1
    10     6     8   ar
    11     6    24    1
    12     6     7   ar
    13     7     9   ar
    14     7    36    1
    15     8    10   ar
    16     8    37    1
    17     9    10   ar
    18     9    14   ar
    19    10    11   ar
    20    11    12   ar
    21    11    38    1
    22    12    13   ar
    23    12    39    1
    24    13    15    1
    25    13    14   ar
    26    14    40    1
    27    15    27    1
    28    15    41    1
    29    15    42    1
    30    16    17   ar
    31    16    19   ar
    32    17    18   ar
    33    17    43    1
    34    18    21   ar
    35    18    44    1
    36    19    20   ar
    37    19    45    1
    38    20    21   ar
    39    20    25   ar
    40    21    22   ar
    41    22    23   ar
    42    22    46    1
    43    23    26    2
    44    23    24   ar
    45    24    25   ar
    46    25    47    1
    47    27    32    1
    48    27    28    1
    49    28    29    1
    50    28    48    1
    51    28    49    1
    52    29    30    1
    53    29    50    1
    54    29    51    1
    55    30    31    1
    56    30    52    1
    57    30    53    1
    58    31    32    1
    59    31    54    1
    60    31    55    1
    61    32    56    1
    62    32    57    1
