306
  -OEChem-02242319213D

 57 62  0     0  0  0  0  0  0999 V2000
  -11.7340   -5.3050   -1.8290 C   0  0  0  0  0  0  0  0  0  0  0  0
  -12.3090   -4.9060   -0.6130 C   0  0  0  0  0  0  0  0  0  0  0  0
  -13.2410   -5.8690   -0.3300 C   0  0  0  0  0  0  0  0  0  0  0  0
  -13.1730   -6.7600   -1.3600 N   0  0  0  0  0  0  0  0  0  0  0  0
  -12.2600   -6.4420   -2.2940 N   0  0  0  0  0  0  0  0  0  0  0  0
   -7.6470    0.1980    1.9990 C   0  0  0  0  0  0  0  0  0  0  0  0
   -6.9660    0.8730    2.9860 C   0  0  0  0  0  0  0  0  0  0  0  0
   -6.8400    0.1400    0.8950 N   0  0  0  0  0  0  0  0  0  0  0  0
   -5.6960    1.2410    2.4610 C   0  0  0  0  0  0  0  0  0  0  0  0
   -5.6420    0.7690    1.1480 C   0  0  0  0  0  0  0  0  0  0  0  0
   -4.5260    0.9540    0.3240 C   0  0  0  0  0  0  0  0  0  0  0  0
   -3.4340    1.6430    0.8590 C   0  0  0  0  0  0  0  0  0  0  0  0
   -3.4670    2.1210    2.1630 C   0  0  0  0  0  0  0  0  0  0  0  0
   -4.5830    1.9330    2.9790 C   0  0  0  0  0  0  0  0  0  0  0  0
   -2.2770    2.8570    2.7080 C   0  0  0  0  0  0  0  0  0  0  0  0
  -12.0510   -3.7680    0.2250 C   0  0  0  0  0  0  0  0  0  0  0  0
  -13.0780   -3.2300    1.0020 C   0  0  0  0  0  0  0  0  0  0  0  0
  -12.8330   -2.1240    1.8150 C   0  0  0  0  0  0  0  0  0  0  0  0
  -10.7750   -3.2030    0.2600 C   0  0  0  0  0  0  0  0  0  0  0  0
  -10.5220   -2.0940    1.0740 C   0  0  0  0  0  0  0  0  0  0  0  0
  -11.5560   -1.5620    1.8470 C   0  0  0  0  0  0  0  0  0  0  0  0
  -11.3010   -0.4480    2.6610 N   0  0  0  0  0  0  0  0  0  0  0  0
  -10.0690    0.1720    2.7490 C   0  0  0  0  0  0  0  0  0  0  0  0
   -8.9500   -0.4120    1.9230 C   0  0  0  0  0  0  0  0  0  0  0  0
   -9.2000   -1.4770    1.1400 C   0  0  0  0  0  0  0  0  0  0  0  0
   -9.8830    1.1600    3.4600 O   0  0  0  0  0  0  0  0  0  0  0  0
   -2.6660    4.0680    3.4310 N   0  0  0  0  0  0  0  0  0  0  0  0
   -3.3900    4.9870    2.5420 C   0  0  0  0  0  0  0  0  0  0  0  0
   -3.8470    6.2370    3.2950 C   0  0  0  0  0  0  0  0  0  0  0  0
   -2.6730    6.9410    3.9650 C   0  0  0  0  0  0  0  0  0  0  0  0
   -1.8800    5.9580    4.8200 C   0  0  0  0  0  0  0  0  0  0  0  0
   -1.4850    4.7170    4.0180 C   0  0  0  0  0  0  0  0  0  0  0  0
  -10.9560   -4.8220   -2.4030 H   0  0  0  0  0  0  0  0  0  0  0  0
  -13.9330   -6.0070    0.4890 H   0  0  0  0  0  0  0  0  0  0  0  0
  -13.7150   -7.6050   -1.4880 H   0  0  0  0  0  0  0  0  0  0  0  0
   -7.3390    1.0830    3.9800 H   0  0  0  0  0  0  0  0  0  0  0  0
   -7.0800   -0.2990    0.0160 H   0  0  0  0  0  0  0  0  0  0  0  0
   -4.5050    0.5790   -0.6940 H   0  0  0  0  0  0  0  0  0  0  0  0
   -2.5560    1.7990    0.2370 H   0  0  0  0  0  0  0  0  0  0  0  0
   -4.5980    2.3110    3.9980 H   0  0  0  0  0  0  0  0  0  0  0  0
   -1.7110    2.2200    3.3960 H   0  0  0  0  0  0  0  0  0  0  0  0
   -1.5950    3.1520    1.9030 H   0  0  0  0  0  0  0  0  0  0  0  0
  -14.0690   -3.6740    0.9690 H   0  0  0  0  0  0  0  0  0  0  0  0
  -13.6400   -1.7120    2.4150 H   0  0  0  0  0  0  0  0  0  0  0  0
   -9.9900   -3.6380   -0.3520 H   0  0  0  0  0  0  0  0  0  0  0  0
  -12.0690   -0.0750    3.2110 H   0  0  0  0  0  0  0  0  0  0  0  0
   -8.4130   -1.9160    0.5320 H   0  0  0  0  0  0  0  0  0  0  0  0
   -4.2760    4.4840    2.1370 H   0  0  0  0  0  0  0  0  0  0  0  0
   -2.7620    5.2780    1.6890 H   0  0  0  0  0  0  0  0  0  0  0  0
   -4.5880    5.9580    4.0550 H   0  0  0  0  0  0  0  0  0  0  0  0
   -4.3440    6.9260    2.6020 H   0  0  0  0  0  0  0  0  0  0  0  0
   -2.0170    7.3710    3.1980 H   0  0  0  0  0  0  0  0  0  0  0  0
   -3.0330    7.7710    4.5820 H   0  0  0  0  0  0  0  0  0  0  0  0
   -0.9810    6.4490    5.2090 H   0  0  0  0  0  0  0  0  0  0  0  0
   -2.4830    5.6600    5.6870 H   0  0  0  0  0  0  0  0  0  0  0  0
   -0.7640    4.9930    3.2380 H   0  0  0  0  0  0  0  0  0  0  0  0
   -0.9810    4.0160    4.6940 H   0  0  0  0  0  0  0  0  0  0  0  0
  1  2  1  0  0  0  0
  1  5  2  0  0  0  0
  1 33  1  0  0  0  0
  2 16  1  0  0  0  0
  2  3  2  0  0  0  0
  3  4  1  0  0  0  0
  3 34  1  0  0  0  0
  4  5  1  0  0  0  0
  4 35  1  0  0  0  0
  6  8  1  0  0  0  0
  6 24  1  0  0  0  0
  6  7  2  0  0  0  0
  7  9  1  0  0  0  0
  7 36  1  0  0  0  0
  8 10  1  0  0  0  0
  8 37  1  0  0  0  0
  9 10  2  0  0  0  0
  9 14  1  0  0  0  0
 10 11  1  0  0  0  0
 11 12  2  0  0  0  0
 11 38  1  0  0  0  0
 12 13  1  0  0  0  0
 12 39  1  0  0  0  0
 13 15  1  0  0  0  0
 13 14  2  0  0  0  0
 14 40  1  0  0  0  0
 15 27  1  0  0  0  0
 15 41  1  0  0  0  0
 15 42  1  0  0  0  0
 16 17  2  0  0  0  0
 16 19  1  0  0  0  0
 17 18  1  0  0  0  0
 17 43  1  0  0  0  0
 18 21  2  0  0  0  0
 18 44  1  0  0  0  0
 19 20  2  0  0  0  0
 19 45  1  0  0  0  0
 20 21  1  0  0  0  0
 20 25  1  0  0  0  0
 21 22  1  0  0  0  0
 22 23  1  0  0  0  0
 22 46  1  0  0  0  0
 23 26  2  0  0  0  0
 23 24  1  0  0  0  0
 24 25  2  0  0  0  0
 25 47  1  0  0  0  0
 27 32  1  0  0  0  0
 27 28  1  0  0  0  0
 28 29  1  0  0  0  0
 28 48  1  0  0  0  0
 28 49  1  0  0  0  0
 29 30  1  0  0  0  0
 29 50  1  0  0  0  0
 29 51  1  0  0  0  0
 30 31  1  0  0  0  0
 30 52  1  0  0  0  0
 30 53  1  0  0  0  0
 31 32  1  0  0  0  0
 31 54  1  0  0  0  0
 31 55  1  0  0  0  0
 32 56  1  0  0  0  0
 32 57  1  0  0  0  0
M  END
> <OPENEYE_ISO_SMILES>
c1cc2c(cc1CN3CCCCC3)cc([nH]2)c4cc5cc(ccc5[nH]c4=O)c6c[nH]nc6

> <OPENEYE_INCHI>
InChI=1S/C26H25N5O/c32-26-22(12-20-11-18(5-7-24(20)30-26)21-14-27-28-15-21)25-13-19-10-17(4-6-23(19)29-25)16-31-8-2-1-3-9-31/h4-7,10-15,29H,1-3,8-9,16H2,(H,27,28)(H,30,32)

> <OPENEYE_INCHIKEY>
JRWKQEATLFJZFB-UHFFFAOYSA-N

> <FORMULA>
C26H25N5O

$$$$
