306
  Mrv15b2303062313492D          

 32 37  0  0  0  0            999 V2000
   -9.0045    0.8012    0.0000 C   0  0  0  0  0  0  0  0  0  0  0  0
   -8.2508    0.4656    0.0000 C   0  0  0  0  0  0  0  0  0  0  0  0
   -8.3371   -0.3549    0.0000 C   0  0  0  0  0  0  0  0  0  0  0  0
   -9.1440   -0.5264    0.0000 N   0  0  0  0  0  0  0  0  0  0  0  0
   -9.5565    0.1881    0.0000 N   0  0  0  0  0  0  0  0  0  0  0  0
   -3.9640    0.4656    0.0000 C   0  0  0  0  0  0  0  0  0  0  0  0
   -3.8778   -0.3549    0.0000 C   0  0  0  0  0  0  0  0  0  0  0  0
   -3.2103    0.8012    0.0000 N   0  0  0  0  0  0  0  0  0  0  0  0
   -3.0708   -0.5264    0.0000 C   0  0  0  0  0  0  0  0  0  0  0  0
   -2.6583    0.1881    0.0000 C   0  0  0  0  0  0  0  0  0  0  0  0
   -1.8333    0.1881    0.0000 C   0  0  0  0  0  0  0  0  0  0  0  0
   -1.4208   -0.5264    0.0000 C   0  0  0  0  0  0  0  0  0  0  0  0
   -1.8333   -1.2409    0.0000 C   0  0  0  0  0  0  0  0  0  0  0  0
   -2.6583   -1.2409    0.0000 C   0  0  0  0  0  0  0  0  0  0  0  0
   -1.4208   -1.9553    0.0000 C   0  0  0  0  0  0  0  0  0  0  0  0
   -7.5364    0.8781    0.0000 C   0  0  0  0  0  0  0  0  0  0  0  0
   -7.5364    1.7031    0.0000 C   0  0  0  0  0  0  0  0  0  0  0  0
   -6.8219    2.1156    0.0000 C   0  0  0  0  0  0  0  0  0  0  0  0
   -6.8219    0.4656    0.0000 C   0  0  0  0  0  0  0  0  0  0  0  0
   -6.1074    0.8781    0.0000 C   0  0  0  0  0  0  0  0  0  0  0  0
   -6.1074    1.7031    0.0000 C   0  0  0  0  0  0  0  0  0  0  0  0
   -5.3930    2.1156    0.0000 N   0  0  0  0  0  0  0  0  0  0  0  0
   -4.6785    1.7031    0.0000 C   0  0  0  0  0  0  0  0  0  0  0  0
   -4.6785    0.8781    0.0000 C   0  0  0  0  0  0  0  0  0  0  0  0
   -5.3930    0.4656    0.0000 C   0  0  0  0  0  0  0  0  0  0  0  0
   -3.9640    2.1156    0.0000 O   0  0  0  0  0  0  0  0  0  0  0  0
   -0.5958   -1.9553    0.0000 N   0  0  0  0  0  0  0  0  0  0  0  0
   -0.1833   -2.6698    0.0000 C   0  0  0  0  0  0  0  0  0  0  0  0
    0.6417   -2.6698    0.0000 C   0  0  0  0  0  0  0  0  0  0  0  0
    1.0542   -1.9553    0.0000 C   0  0  0  0  0  0  0  0  0  0  0  0
    0.6417   -1.2409    0.0000 C   0  0  0  0  0  0  0  0  0  0  0  0
   -0.1833   -1.2409    0.0000 C   0  0  0  0  0  0  0  0  0  0  0  0
  1  2  4  0  0  0  0
  1  5  4  0  0  0  0
  2 16  1  0  0  0  0
  2  3  4  0  0  0  0
  3  4  4  0  0  0  0
  4  5  4  0  0  0  0
  6  8  4  0  0  0  0
  6 24  1  0  0  0  0
  6  7  4  0  0  0  0
  7  9  4  0  0  0  0
  8 10  4  0  0  0  0
  9 10  4  0  0  0  0
  9 14  4  0  0  0  0
 10 11  4  0  0  0  0
 11 12  4  0  0  0  0
 12 13  4  0  0  0  0
 13 15  1  0  0  0  0
 13 14  4  0  0  0  0
 15 27  1  0  0  0  0
 16 17  4  0  0  0  0
 16 19  4  0  0  0  0
 17 18  4  0  0  0  0
 18 21  4  0  0  0  0
 19 20  4  0  0  0  0
 20 21  4  0  0  0  0
 20 25  4  0  0  0  0
 21 22  4  0  0  0  0
 22 23  4  0  0  0  0
 23 26  2  0  0  0  0
 23 24  4  0  0  0  0
 24 25  4  0  0  0  0
 27 32  1  0  0  0  0
 27 28  1  0  0  0  0
 28 29  1  0  0  0  0
 29 30  1  0  0  0  0
 30 31  1  0  0  0  0
 31 32  1  0  0  0  0
M  STY  3   1 DAT   2 DAT   3 DAT
M  SAL   1  1   4
M  SDT   1 MRV_IMPLICIT_H                                        
M  SDD   1     0.0000    0.0000    DR    ALL  0       0  
M  SED   1 IMPL_H1
M  SAL   2  1   8
M  SDT   2 MRV_IMPLICIT_H                                        
M  SDD   2     0.0000    0.0000    DR    ALL  0       0  
M  SED   2 IMPL_H1
M  SAL   3  1  22
M  SDT   3 MRV_IMPLICIT_H                                        
M  SDD   3     0.0000    0.0000    DR    ALL  0       0  
M  SED   3 IMPL_H1
M  END
