@<TRIPOS>MOLECULE
HDT
 40 43 0 0 0
SMALL
GASTEIGER

@<TRIPOS>ATOM
      1 C          -1.8670    0.0790    3.0000 C.ar    1  LIG1       -0.0386
      2 N           0.2040    0.0840   -5.0880 N.ar    1  LIG1       -0.2979
      3 C           1.5490    0.2760   -5.1870 C.ar    1  LIG1        0.0118
      4 C          -0.5950    0.1770   -6.1950 C.ar    1  LIG1        0.1380
      5 C          -0.0210    0.4860   -7.4420 C.ar    1  LIG1       -0.0188
      6 C           1.3230    0.6820   -7.5290 C.ar    1  LIG1       -0.0569
      7 C           2.1160    0.5740   -6.3760 C.ar    1  LIG1       -0.0450
      8 C           0.9810   -1.1220   -2.3250 C.ar    1  LIG1       -0.0159
      9 C          -0.2020   -0.4320   -2.6260 C.ar    1  LIG1        0.0942
     10 C          -0.6150   -0.2280   -4.0240 C.ar    1  LIG1        0.0916
     11 C          -1.8970   -0.3060   -4.5250 C.ar    1  LIG1        0.0558
     12 C           1.3260   -1.2880   -0.9990 C.ar    1  LIG1        0.0333
     13 C          -0.9440    0.2660    1.9790 C.ar    1  LIG1        0.0337
     14 C          -0.5770   -0.1490   -0.3660 C.ar    1  LIG1        0.2200
     15 N          -0.9510    0.0290   -1.6220 N.ar    1  LIG1       -0.2127
     16 C           0.4070    0.3710    2.2810 C.ar    1  LIG1       -0.0386
     17 C           0.8290    0.2900    3.5930 C.ar    1  LIG1       -0.0336
     18 C          -0.0920    0.1040    4.6070 C.ar    1  LIG1        0.1051
     19 O           1.8150   -0.3900    6.2200 O.2     1  LIG1       -0.1533
     20 S           0.4500    0.0000    6.2800 S.O2    1  LIG1        0.0559
     21 O          -0.5740   -0.6960    6.9760 O.2     1  LIG1       -0.1533
     22 N           0.4480    1.5360    6.8980 N.3     1  LIG1       -0.2035
     23 C          -1.4380   -0.0060    4.3100 C.ar    1  LIG1       -0.0336
     24 N          -1.3740    0.3480    0.6520 N.pl3   1  LIG1       -0.2836
     25 N           0.5360   -0.7970   -0.0560 N.ar    1  LIG1       -0.2226
     26 N          -1.8510   -0.0570   -5.8280 N.ar    1  LIG1       -0.2354
     27 H          -2.9190   -0.0010    2.7690 H       1  LIG1        0.0637
     28 H           2.1670    0.1940   -4.3050 H       1  LIG1        0.0813
     29 H          -0.6410    0.5670   -8.3230 H       1  LIG1        0.0654
     30 H           1.7770    0.9190   -8.4800 H       1  LIG1        0.0619
     31 H           3.1830    0.7280   -6.4410 H       1  LIG1        0.0632
     32 H           1.6080   -1.5120   -3.1130 H       1  LIG1        0.0655
     33 H          -2.7860   -0.5310   -3.9550 H       1  LIG1        0.0852
     34 H           2.2310   -1.8140   -0.7330 H       1  LIG1        0.0831
     35 H           1.1280    0.5170    1.4890 H       1  LIG1        0.0637
     36 H           1.8800    0.3720    3.8280 H       1  LIG1        0.0638
     37 H           0.7190    1.6900    7.8160 H       1  LIG1        0.1442
     38 H           0.1810    2.2830    6.3390 H       1  LIG1        0.1442
     39 H          -2.1550   -0.1510    5.1040 H       1  LIG1        0.0638
     40 H          -2.2310    0.7530    0.4440 H       1  LIG1        0.1550
@<TRIPOS>BOND
     1     1    13   ar
     2     1    23   ar
     3     1    27    1
     4     2     3   ar
     5     2     4   ar
     6     2    10   ar
     7     3     7   ar
     8     3    28    1
     9     4     5   ar
    10     4    26   ar
    11     5     6   ar
    12     5    29    1
    13     6     7   ar
    14     6    30    1
    15     7    31    1
    16     8     9   ar
    17     8    12   ar
    18     8    32    1
    19     9    10    1
    20     9    15   ar
    21    10    11   ar
    22    11    26   ar
    23    11    33    1
    24    12    25   ar
    25    12    34    1
    26    13    16   ar
    27    13    24    1
    28    14    15   ar
    29    14    24    1
    30    14    25   ar
    31    16    17   ar
    32    16    35    1
    33    17    18   ar
    34    17    36    1
    35    18    20    1
    36    18    23   ar
    37    19    20    2
    38    20    21    2
    39    20    22    1
    40    22    37    1
    41    22    38    1
    42    23    39    1
    43    24    40    1
