HDT
  Mrv15b2303062314002D          

 26 29  0  0  0  0            999 V2000
   -0.8744    1.4912    0.0000 C   0  0  0  0  0  0  0  0  0  0  0  0
    1.7370   -2.0737    0.0000 N   0  0  0  0  0  0  0  0  0  0  0  0
    2.4515   -1.6612    0.0000 C   0  0  0  0  0  0  0  0  0  0  0  0
    1.7370   -2.8987    0.0000 C   0  0  0  0  0  0  0  0  0  0  0  0
    2.4515   -3.3112    0.0000 C   0  0  0  0  0  0  0  0  0  0  0  0
    3.1659   -2.8987    0.0000 C   0  0  0  0  0  0  0  0  0  0  0  0
    3.1659   -2.0737    0.0000 C   0  0  0  0  0  0  0  0  0  0  0  0
    1.2495   -0.4211    0.0000 C   0  0  0  0  0  0  0  0  0  0  0  0
    0.6974   -1.0342    0.0000 C   0  0  0  0  0  0  0  0  0  0  0  0
    0.9524   -1.8188    0.0000 C   0  0  0  0  0  0  0  0  0  0  0  0
    0.4674   -2.4862    0.0000 C   0  0  0  0  0  0  0  0  0  0  0  0
    0.9945    0.3636    0.0000 C   0  0  0  0  0  0  0  0  0  0  0  0
   -1.4264    0.8781    0.0000 C   0  0  0  0  0  0  0  0  0  0  0  0
   -0.3645   -0.0780    0.0000 C   0  0  0  0  0  0  0  0  0  0  0  0
   -0.1095   -0.8626    0.0000 N   0  0  0  0  0  0  0  0  0  0  0  0
   -2.2334    1.0497    0.0000 C   0  0  0  0  0  0  0  0  0  0  0  0
   -2.4883    1.8343    0.0000 C   0  0  0  0  0  0  0  0  0  0  0  0
   -1.9363    2.4474    0.0000 C   0  0  0  0  0  0  0  0  0  0  0  0
   -2.4461    4.0166    0.0000 O   0  0  0  0  0  0  0  0  0  0  0  0
   -2.1912    3.2320    0.0000 S   0  0  0  0  0  0  0  0  0  0  0  0
   -1.4066    3.4869    0.0000 O   0  0  0  0  0  0  0  0  0  0  0  0
   -2.9758    2.9771    0.0000 N   0  0  0  0  0  0  0  0  0  0  0  0
   -1.1293    2.2759    0.0000 C   0  0  0  0  0  0  0  0  0  0  0  0
   -1.1714    0.0935    0.0000 N   0  0  0  0  0  0  0  0  0  0  0  0
    0.1876    0.5351    0.0000 N   0  0  0  0  0  0  0  0  0  0  0  0
    0.9524   -3.1537    0.0000 N   0  0  0  0  0  0  0  0  0  0  0  0
  1 13  4  0  0  0  0
  1 23  4  0  0  0  0
  2  3  4  0  0  0  0
  2  4  4  0  0  0  0
  2 10  4  0  0  0  0
  3  7  4  0  0  0  0
  4  5  4  0  0  0  0
  4 26  4  0  0  0  0
  5  6  4  0  0  0  0
  6  7  4  0  0  0  0
  8  9  4  0  0  0  0
  8 12  4  0  0  0  0
  9 10  1  0  0  0  0
  9 15  4  0  0  0  0
 10 11  4  0  0  0  0
 11 26  4  0  0  0  0
 12 25  4  0  0  0  0
 13 16  4  0  0  0  0
 13 24  1  0  0  0  0
 14 15  4  0  0  0  0
 14 24  1  0  0  0  0
 14 25  4  0  0  0  0
 16 17  4  0  0  0  0
 17 18  4  0  0  0  0
 18 20  1  0  0  0  0
 18 23  4  0  0  0  0
 19 20  2  0  0  0  0
 20 21  2  0  0  0  0
 20 22  1  0  0  0  0
M  END
