HDT
  -OEChem-02242319243D

 40 43  0     0  0  0  0  0  0999 V2000
   -1.8670    0.0790    3.0000 C   0  0  0  0  0  0  0  0  0  0  0  0
    0.2040    0.0840   -5.0880 N   0  0  0  0  0  0  0  0  0  0  0  0
    1.5490    0.2760   -5.1870 C   0  0  0  0  0  0  0  0  0  0  0  0
   -0.5950    0.1770   -6.1950 C   0  0  0  0  0  0  0  0  0  0  0  0
   -0.0210    0.4860   -7.4420 C   0  0  0  0  0  0  0  0  0  0  0  0
    1.3230    0.6820   -7.5290 C   0  0  0  0  0  0  0  0  0  0  0  0
    2.1160    0.5740   -6.3760 C   0  0  0  0  0  0  0  0  0  0  0  0
    0.9810   -1.1220   -2.3250 C   0  0  0  0  0  0  0  0  0  0  0  0
   -0.2020   -0.4320   -2.6260 C   0  0  0  0  0  0  0  0  0  0  0  0
   -0.6150   -0.2280   -4.0240 C   0  0  0  0  0  0  0  0  0  0  0  0
   -1.8970   -0.3060   -4.5250 C   0  0  0  0  0  0  0  0  0  0  0  0
    1.3260   -1.2880   -0.9990 C   0  0  0  0  0  0  0  0  0  0  0  0
   -0.9440    0.2660    1.9790 C   0  0  0  0  0  0  0  0  0  0  0  0
   -0.5770   -0.1490   -0.3660 C   0  0  0  0  0  0  0  0  0  0  0  0
   -0.9510    0.0290   -1.6220 N   0  0  0  0  0  0  0  0  0  0  0  0
    0.4070    0.3710    2.2810 C   0  0  0  0  0  0  0  0  0  0  0  0
    0.8290    0.2900    3.5930 C   0  0  0  0  0  0  0  0  0  0  0  0
   -0.0920    0.1040    4.6070 C   0  0  0  0  0  0  0  0  0  0  0  0
    1.8150   -0.3900    6.2200 O   0  0  0  0  0  0  0  0  0  0  0  0
    0.4500    0.0000    6.2800 S   0  0  0  0  0  0  0  0  0  0  0  0
   -0.5740   -0.6960    6.9760 O   0  0  0  0  0  0  0  0  0  0  0  0
    0.4480    1.5360    6.8980 N   0  0  0  0  0  0  0  0  0  0  0  0
   -1.4380   -0.0060    4.3100 C   0  0  0  0  0  0  0  0  0  0  0  0
   -1.3740    0.3480    0.6520 N   0  0  0  0  0  0  0  0  0  0  0  0
    0.5360   -0.7970   -0.0560 N   0  0  0  0  0  0  0  0  0  0  0  0
   -1.8510   -0.0570   -5.8280 N   0  0  0  0  0  0  0  0  0  0  0  0
   -2.9190   -0.0010    2.7690 H   0  0  0  0  0  0  0  0  0  0  0  0
    2.1670    0.1940   -4.3050 H   0  0  0  0  0  0  0  0  0  0  0  0
   -0.6410    0.5670   -8.3230 H   0  0  0  0  0  0  0  0  0  0  0  0
    1.7770    0.9190   -8.4800 H   0  0  0  0  0  0  0  0  0  0  0  0
    3.1830    0.7280   -6.4410 H   0  0  0  0  0  0  0  0  0  0  0  0
    1.6080   -1.5120   -3.1130 H   0  0  0  0  0  0  0  0  0  0  0  0
   -2.7860   -0.5310   -3.9550 H   0  0  0  0  0  0  0  0  0  0  0  0
    2.2310   -1.8140   -0.7330 H   0  0  0  0  0  0  0  0  0  0  0  0
    1.1280    0.5170    1.4890 H   0  0  0  0  0  0  0  0  0  0  0  0
    1.8800    0.3720    3.8280 H   0  0  0  0  0  0  0  0  0  0  0  0
    0.7190    1.6900    7.8160 H   0  0  0  0  0  0  0  0  0  0  0  0
    0.1810    2.2830    6.3390 H   0  0  0  0  0  0  0  0  0  0  0  0
   -2.1550   -0.1510    5.1040 H   0  0  0  0  0  0  0  0  0  0  0  0
   -2.2310    0.7530    0.4440 H   0  0  0  0  0  0  0  0  0  0  0  0
  1 13  2  0  0  0  0
  1 23  1  0  0  0  0
  1 27  1  0  0  0  0
  2  3  1  0  0  0  0
  2  4  1  0  0  0  0
  2 10  1  0  0  0  0
  3  7  2  0  0  0  0
  3 28  1  0  0  0  0
  4  5  1  0  0  0  0
  4 26  2  0  0  0  0
  5  6  2  0  0  0  0
  5 29  1  0  0  0  0
  6  7  1  0  0  0  0
  6 30  1  0  0  0  0
  7 31  1  0  0  0  0
  8  9  2  0  0  0  0
  8 12  1  0  0  0  0
  8 32  1  0  0  0  0
  9 10  1  0  0  0  0
  9 15  1  0  0  0  0
 10 11  2  0  0  0  0
 11 26  1  0  0  0  0
 11 33  1  0  0  0  0
 12 25  2  0  0  0  0
 12 34  1  0  0  0  0
 13 16  1  0  0  0  0
 13 24  1  0  0  0  0
 14 15  2  0  0  0  0
 14 24  1  0  0  0  0
 14 25  1  0  0  0  0
 16 17  2  0  0  0  0
 16 35  1  0  0  0  0
 17 18  1  0  0  0  0
 17 36  1  0  0  0  0
 18 20  1  0  0  0  0
 18 23  2  0  0  0  0
 19 20  2  0  0  0  0
 20 21  2  0  0  0  0
 20 22  1  0  0  0  0
 22 37  1  0  0  0  0
 22 38  1  0  0  0  0
 23 39  1  0  0  0  0
 24 40  1  0  0  0  0
M  END
> <OPENEYE_ISO_SMILES>
c1ccn2c(c1)ncc2c3ccnc(n3)Nc4ccc(cc4)S(=O)(=O)N

> <OPENEYE_INCHI>
InChI=1S/C17H14N6O2S/c18-26(24,25)13-6-4-12(5-7-13)21-17-19-9-8-14(22-17)15-11-20-16-3-1-2-10-23(15)16/h1-11H,(H2,18,24,25)(H,19,21,22)

> <OPENEYE_INCHIKEY>
NKORVPQBJCGYEC-UHFFFAOYSA-N

> <FORMULA>
C17H14N6O2S

$$$$
