@<TRIPOS>MOLECULE
T87
 70 74 0 0 0
SMALL
GASTEIGER

@<TRIPOS>ATOM
      1 C           5.7220    7.3130   21.3920 C.ar    1  UNL1        0.0686
      2 N           8.0420    7.2970   21.6700 N.ar    1  UNL1       -0.2307
      3 C           6.9430    6.4950   21.5160 C.ar    1  UNL1        0.0896
      4 C           7.4330    8.5590   21.6310 C.ar    1  UNL1        0.1277
      5 N           6.0270    8.6790   21.4670 N.ar    1  UNL1       -0.3294
      6 C           4.4240    6.6560   21.2120 C.ar    1  UNL1       -0.0358
      7 C           4.3630    5.2360   21.1580 C.ar    1  UNL1       -0.0556
      8 C           5.5570    4.3740   21.2740 C.ar    1  UNL1       -0.0331
      9 C           6.8670    5.0340   21.4640 C.ar    1  UNL1       -0.0301
     10 C           5.1250    9.8850   21.3860 C.3     1  UNL1        0.0136
     11 C           5.4280    2.7860   20.9920 C.3     1  UNL1        0.0431
     12 C           5.1970    1.8020   22.1520 C.3     1  UNL1       -0.0366
     13 C           6.5730    1.8980   21.5070 C.3     1  UNL1       -0.0366
     14 C           4.3090    2.5420   19.8740 C.2     1  UNL1        0.1157
     15 N           4.5000    2.8780   18.6160 N.2     1  UNL1       -0.0860
     16 O           5.7440    3.5320   18.1200 O.2     1  UNL1       -0.3820
     17 C           6.0650    3.0420   16.8080 C.3     1  UNL1        0.2138
     18 C           6.5740    1.5850   16.8990 C.2     1  UNL1        0.3478
     19 O           6.2190    0.7750   16.0250 O.2     1  UNL1       -0.2469
     20 O           7.4110    1.2270   17.9560 O.3     1  UNL1       -0.4625
     21 C           8.8150    1.4600   17.7040 C.3     1  UNL1        0.0898
     22 C           9.6240    0.2110   18.1050 C.3     1  UNL1       -0.0306
     23 C           2.9590    1.8100   20.2180 C.ar    1  UNL1        0.0891
     24 N           2.7830    0.4350   19.8170 N.ar    1  UNL1       -0.2536
     25 C           1.5730   -0.3020   20.1140 C.ar    1  UNL1        0.0283
     26 C           0.5130    0.3460   20.8280 C.ar    1  UNL1       -0.0436
     27 C           0.6780    1.7200   21.2380 C.ar    1  UNL1       -0.0583
     28 C           1.8830    2.4600   20.9440 C.ar    1  UNL1       -0.0344
     29 C           8.3610    9.7980   21.7540 C.3     1  UNL1        0.0674
     30 N           8.8200   10.1050   23.1530 N.pl3   1  UNL1       -0.3367
     31 C           9.6020    9.2850   24.0800 C.ar    1  UNL1        0.0275
     32 C          11.0630    9.2640   24.0630 C.ar    1  UNL1       -0.0400
     33 C          11.7870    8.4410   24.9810 C.ar    1  UNL1       -0.0452
     34 C          11.1040    7.5910   25.9670 C.ar    1  UNL1        0.0648
     35 C          11.8450    6.7750   26.8520 C.2     1  UNL1        0.3081
     36 C           9.6200    7.6340   25.9650 C.ar    1  UNL1       -0.0452
     37 N          13.1700    6.7430   26.9060 N.2     1  UNL1       -0.0994
     38 N          11.3300    5.8700   27.6680 N.pl3   1  UNL1       -0.2466
     39 C           8.8880    8.4680   25.0360 C.ar    1  UNL1       -0.0400
     40 H           3.5062    7.2553   21.1196 H       1  UNL1        0.0639
     41 H           3.3816    4.7577   21.0237 H       1  UNL1        0.0621
     42 H           7.7804    4.4295   21.5658 H       1  UNL1        0.0642
     43 H           4.8723   10.2228   22.4019 H       1  UNL1        0.0456
     44 H           5.6416   10.6938   20.8485 H       1  UNL1        0.0456
     45 H           4.2032    9.6180   20.8485 H       1  UNL1        0.0456
     46 H           5.0410    2.1826   23.1722 H       1  UNL1        0.0278
     47 H           4.4866    0.9851   22.3468 H       1  UNL1        0.0278
     48 H           6.9475    1.0704   20.8867 H       1  UNL1        0.0278
     49 H           7.5921    2.0834   21.8773 H       1  UNL1        0.0278
     50 H           5.1650    3.0749   16.1763 H       1  UNL1        0.0843
     51 H           6.8516    3.6731   16.3688 H       1  UNL1        0.0843
     52 H           8.9660    1.6666   16.6342 H       1  UNL1        0.0694
     53 H           9.1552    2.3224   18.2960 H       1  UNL1        0.0694
     54 H           9.6698    0.1403   19.2018 H       1  UNL1        0.0262
     55 H           9.1360   -0.6877   17.6997 H       1  UNL1        0.0262
     56 H          10.6436    0.2889   17.6997 H       1  UNL1        0.0262
     57 H           1.4683   -1.3494   19.7947 H       1  UNL1        0.0830
     58 H          -0.4149   -0.1970   21.0607 H       1  UNL1        0.0633
     59 H          -0.1348    2.2163   21.7885 H       1  UNL1        0.0619
     60 H           1.9845    3.5065   21.2672 H       1  UNL1        0.0639
     61 H           9.2514    9.6219   21.1325 H       1  UNL1        0.0541
     62 H           7.7672   10.6638   21.4256 H       1  UNL1        0.0541
     63 H           8.5429   11.0297   23.5123 H       1  UNL1        0.1465
     64 H          11.6097    9.8858   23.3388 H       1  UNL1        0.0636
     65 H          12.8865    8.4439   24.9486 H       1  UNL1        0.0627
     66 H           9.0638    7.0175   26.6865 H       1  UNL1        0.0627
     67 H          13.6432    6.1222   27.5780 H       1  UNL1        0.3633
     68 H          11.9474    5.3183   28.2807 H       1  UNL1        0.2884
     69 H          10.3117    5.7170   27.6906 H       1  UNL1        0.2884
     70 H           7.7883    8.4804   25.0571 H       1  UNL1        0.0636
@<TRIPOS>BOND
     1     3     2   ar
     2     3     1   ar
     3     4     2   ar
     4     5     4   ar
     5     5     1   ar
     6     6     1   ar
     7     7     6   ar
     8     8     7   ar
     9     9     8   ar
    10     9     3   ar
    11    10     5    1
    12    11     8    1
    13    12    11    1
    14    13    11    1
    15    13    12    1
    16    14    11    1
    17    15    14    2
    18    16    15    1
    19    17    16    1
    20    18    17    1
    21    19    18    2
    22    20    18    1
    23    21    20    1
    24    22    21    1
    25    23    14    1
    26    24    23   ar
    27    25    24   ar
    28    26    25   ar
    29    27    26   ar
    30    28    27   ar
    31    28    23   ar
    32    29     4    1
    33    30    29    1
    34    31    30    1
    35    32    31   ar
    36    33    32   ar
    37    34    33   ar
    38    35    34    1
    39    36    34   ar
    40    37    35    2
    41    38    35    1
    42    39    36   ar
    43    39    31   ar
    44     6    40    1
    45     7    41    1
    46     9    42    1
    47    10    43    1
    48    10    44    1
    49    10    45    1
    50    12    46    1
    51    12    47    1
    52    13    48    1
    53    13    49    1
    54    17    50    1
    55    17    51    1
    56    21    52    1
    57    21    53    1
    58    22    54    1
    59    22    55    1
    60    22    56    1
    61    25    57    1
    62    26    58    1
    63    27    59    1
    64    28    60    1
    65    29    61    1
    66    29    62    1
    67    30    63    1
    68    32    64    1
    69    33    65    1
    70    36    66    1
    71    37    67    1
    72    38    68    1
    73    38    69    1
    74    39    70    1
