@<TRIPOS>MOLECULE
EHA
 70 74 0 0 0
SMALL
GASTEIGER

@<TRIPOS>ATOM
      1 C           4.9980   -1.8420   39.4220 C.ar    1  UNL1       -0.0191
      2 C           4.4560   -2.6760   40.4040 C.ar    1  UNL1       -0.0505
      3 C           5.2380   -3.7030   40.9440 C.ar    1  UNL1       -0.0167
      4 C           6.5610   -3.8980   40.5010 C.ar    1  UNL1       -0.0112
      5 C           7.1300   -3.0610   39.5130 C.ar    1  UNL1        0.0020
      6 C           6.3150   -2.0370   38.9770 C.ar    1  UNL1        0.1242
      7 C           4.6950   -4.5350   41.9240 C.ar    1  UNL1       -0.0432
      8 C           5.4640   -5.5620   42.4830 C.ar    1  UNL1        0.0228
      9 C           6.7780   -5.7650   42.0380 C.ar    1  UNL1       -0.0503
     10 C           7.3240   -4.9350   41.0620 C.ar    1  UNL1       -0.0530
     11 O           6.8590   -1.2200   38.0250 O.3     1  UNL1       -0.4916
     12 C           6.2560   -1.1180   36.6850 C.3     1  UNL1        0.0927
     13 C           6.4020   -2.4230   35.8700 C.3     1  UNL1        0.0157
     14 C           7.6820   -2.3890   35.0500 C.3     1  UNL1        0.0927
     15 O           8.8800   -2.8660   35.6870 O.3     1  UNL1       -0.4918
     16 C           9.2960   -4.1490   35.3990 C.ar    1  UNL1        0.1212
     17 C           9.8680   -5.0030   36.3500 C.ar    1  UNL1       -0.0180
     18 C          10.2670   -6.3000   36.0070 C.ar    1  UNL1       -0.0341
     19 C          10.0960   -6.7520   34.6920 C.ar    1  UNL1        0.0498
     20 N          10.3500   -7.8960   34.0460 N.ar    1  UNL1       -0.3359
     21 C           9.5230   -5.9020   33.7360 C.ar    1  UNL1        0.0033
     22 C           9.9680   -7.7820   32.7700 C.ar    1  UNL1        0.0063
     23 C           9.4570   -6.5610   32.5830 C.ar    1  UNL1       -0.0363
     24 C           9.1190   -4.6170   34.0970 C.ar    1  UNL1       -0.0108
     25 C          10.9740   -9.1050   34.6250 C.3     1  UNL1        0.1201
     26 C          10.1190  -10.3760   34.4740 C.2     1  UNL1        0.3247
     27 O           8.9480  -10.3210   34.9360 O.2     1  UNL1       -0.2490
     28 O          10.6390  -11.3600   33.8800 O.3     1  UNL1       -0.4794
     29 C           8.5920   -3.2640   39.0190 C.3     1  UNL1       -0.0239
     30 C           9.6140   -2.4220   39.8070 C.3     1  UNL1       -0.0518
     31 C          10.8610   -2.0590   38.9750 C.3     1  UNL1       -0.0650
     32 C           4.8660   -6.5180   43.5460 C.2     1  UNL1        0.1932
     33 O           3.6960   -6.9090   43.4180 O.2     1  UNL1       -0.2867
     34 C           5.6830   -6.9260   44.8150 C.ar    1  UNL1        0.0223
     35 C           6.1000   -5.9470   45.7260 C.ar    1  UNL1       -0.0509
     36 C           6.8220   -6.2940   46.8680 C.ar    1  UNL1       -0.0611
     37 C           7.1210   -7.6250   47.1180 C.ar    1  UNL1       -0.0617
     38 C           6.7060   -8.6030   46.2260 C.ar    1  UNL1       -0.0611
     39 C           5.9840   -8.2650   45.0800 C.ar    1  UNL1       -0.0509
     40 H           4.3903   -1.0299   38.9963 H       1  UNL1        0.0654
     41 H           3.4225   -2.5261   40.7497 H       1  UNL1        0.0625
     42 H           3.6582   -4.3829   42.2585 H       1  UNL1        0.0631
     43 H           7.3798   -6.5827   42.4613 H       1  UNL1        0.0625
     44 H           8.3602   -5.0928   40.7282 H       1  UNL1        0.0624
     45 H           5.1858   -0.8892   36.7961 H       1  UNL1        0.0697
     46 H           6.7849   -0.3223   36.1399 H       1  UNL1        0.0697
     47 H           6.4343   -3.2800   36.5588 H       1  UNL1        0.0331
     48 H           5.5426   -2.5200   35.1903 H       1  UNL1        0.0331
     49 H           7.5170   -3.0028   34.1522 H       1  UNL1        0.0697
     50 H           7.8678   -1.3223   34.8558 H       1  UNL1        0.0697
     51 H          10.0059   -4.6491   37.3824 H       1  UNL1        0.0655
     52 H          10.7123   -6.9606   36.7655 H       1  UNL1        0.0639
     53 H          10.0591   -8.5635   32.0013 H       1  UNL1        0.0809
     54 H           9.0519   -6.1691   31.6384 H       1  UNL1        0.0639
     55 H           8.6542   -3.9632   33.3443 H       1  UNL1        0.0661
     56 H          11.9377   -9.2731   34.1220 H       1  UNL1        0.0607
     57 H          11.0895   -8.9218   35.7035 H       1  UNL1        0.0607
     58 H          10.1225  -12.1963   33.7620 H       1  UNL1        0.2951
     59 H           8.8547   -4.3266   39.1275 H       1  UNL1        0.0314
     60 H           8.6341   -2.9368   37.9696 H       1  UNL1        0.0314
     61 H           9.1259   -1.4914   40.1322 H       1  UNL1        0.0266
     62 H           9.9517   -3.0271   40.6613 H       1  UNL1        0.0266
     63 H          11.6946   -1.8163   39.6505 H       1  UNL1        0.0230
     64 H          11.1399   -2.9132   38.3406 H       1  UNL1        0.0230
     65 H          10.6378   -1.1885   38.3406 H       1  UNL1        0.0230
     66 H           5.8550   -4.8912   45.5384 H       1  UNL1        0.0625
     67 H           7.1535   -5.5136   47.5688 H       1  UNL1        0.0618
     68 H           7.6851   -7.9041   48.0202 H       1  UNL1        0.0618
     69 H           6.9487   -9.6574   46.4241 H       1  UNL1        0.0618
     70 H           5.6523   -9.0516   44.3863 H       1  UNL1        0.0625
@<TRIPOS>BOND
     1     2     1   ar
     2     3     2   ar
     3     4     3   ar
     4     5     4   ar
     5     6     1   ar
     6     6     5   ar
     7     7     3   ar
     8     8     7   ar
     9     9     8   ar
    10    10     9   ar
    11    10     4   ar
    12    11     6    1
    13    12    11    1
    14    13    12    1
    15    14    13    1
    16    15    14    1
    17    16    15    1
    18    17    16   ar
    19    18    17   ar
    20    19    18   ar
    21    20    19   ar
    22    21    19   ar
    23    22    20   ar
    24    23    22   ar
    25    23    21   ar
    26    24    21   ar
    27    24    16   ar
    28    25    20    1
    29    26    25    1
    30    27    26    2
    31    28    26    1
    32    29     5    1
    33    30    29    1
    34    31    30    1
    35    32     8    1
    36    33    32    2
    37    34    32    1
    38    35    34   ar
    39    36    35   ar
    40    37    36   ar
    41    38    37   ar
    42    39    38   ar
    43    39    34   ar
    44     1    40    1
    45     2    41    1
    46     7    42    1
    47     9    43    1
    48    10    44    1
    49    12    45    1
    50    12    46    1
    51    13    47    1
    52    13    48    1
    53    14    49    1
    54    14    50    1
    55    17    51    1
    56    18    52    1
    57    22    53    1
    58    23    54    1
    59    24    55    1
    60    25    56    1
    61    25    57    1
    62    28    58    1
    63    29    59    1
    64    29    60    1
    65    30    61    1
    66    30    62    1
    67    31    63    1
    68    31    64    1
    69    31    65    1
    70    35    66    1
    71    36    67    1
    72    37    68    1
    73    38    69    1
    74    39    70    1
