EHA
 OpenBabel10252216163D

 70 74  0  0  0  0  0  0  0  0999 V2000
    4.9980   -1.8420   39.4220 C   0  0  0  0  0  0  0  0  0  0  0  0
    4.4560   -2.6760   40.4040 C   0  0  0  0  0  0  0  0  0  0  0  0
    5.2380   -3.7030   40.9440 C   0  0  0  0  0  0  0  0  0  0  0  0
    6.5610   -3.8980   40.5010 C   0  0  0  0  0  0  0  0  0  0  0  0
    7.1300   -3.0610   39.5130 C   0  0  0  0  0  0  0  0  0  0  0  0
    6.3150   -2.0370   38.9770 C   0  0  0  0  0  0  0  0  0  0  0  0
    4.6950   -4.5350   41.9240 C   0  0  0  0  0  0  0  0  0  0  0  0
    5.4640   -5.5620   42.4830 C   0  0  0  0  0  0  0  0  0  0  0  0
    6.7780   -5.7650   42.0380 C   0  0  0  0  0  0  0  0  0  0  0  0
    7.3240   -4.9350   41.0620 C   0  0  0  0  0  0  0  0  0  0  0  0
    6.8590   -1.2200   38.0250 O   0  0  0  0  0  0  0  0  0  0  0  0
    6.2560   -1.1180   36.6850 C   0  0  0  0  0  0  0  0  0  0  0  0
    6.4020   -2.4230   35.8700 C   0  0  0  0  0  0  0  0  0  0  0  0
    7.6820   -2.3890   35.0500 C   0  0  0  0  0  0  0  0  0  0  0  0
    8.8800   -2.8660   35.6870 O   0  0  0  0  0  0  0  0  0  0  0  0
    9.2960   -4.1490   35.3990 C   0  0  0  0  0  0  0  0  0  0  0  0
    9.8680   -5.0030   36.3500 C   0  0  0  0  0  0  0  0  0  0  0  0
   10.2670   -6.3000   36.0070 C   0  0  0  0  0  0  0  0  0  0  0  0
   10.0960   -6.7520   34.6920 C   0  0  0  0  0  0  0  0  0  0  0  0
   10.3500   -7.8960   34.0460 N   0  0  0  0  0  0  0  0  0  0  0  0
    9.5230   -5.9020   33.7360 C   0  0  0  0  0  0  0  0  0  0  0  0
    9.9680   -7.7820   32.7700 C   0  0  0  0  0  0  0  0  0  0  0  0
    9.4570   -6.5610   32.5830 C   0  0  0  0  0  0  0  0  0  0  0  0
    9.1190   -4.6170   34.0970 C   0  0  0  0  0  0  0  0  0  0  0  0
   10.9740   -9.1050   34.6250 C   0  0  0  0  0  0  0  0  0  0  0  0
   10.1190  -10.3760   34.4740 C   0  0  0  0  0  0  0  0  0  0  0  0
    8.9480  -10.3210   34.9360 O   0  0  0  0  0  0  0  0  0  0  0  0
   10.6390  -11.3600   33.8800 O   0  0  0  0  0  0  0  0  0  0  0  0
    8.5920   -3.2640   39.0190 C   0  0  0  0  0  0  0  0  0  0  0  0
    9.6140   -2.4220   39.8070 C   0  0  0  0  0  0  0  0  0  0  0  0
   10.8610   -2.0590   38.9750 C   0  0  0  0  0  0  0  0  0  0  0  0
    4.8660   -6.5180   43.5460 C   0  0  0  0  0  0  0  0  0  0  0  0
    3.6960   -6.9090   43.4180 O   0  0  0  0  0  0  0  0  0  0  0  0
    5.6830   -6.9260   44.8150 C   0  0  0  0  0  0  0  0  0  0  0  0
    6.1000   -5.9470   45.7260 C   0  0  0  0  0  0  0  0  0  0  0  0
    6.8220   -6.2940   46.8680 C   0  0  0  0  0  0  0  0  0  0  0  0
    7.1210   -7.6250   47.1180 C   0  0  0  0  0  0  0  0  0  0  0  0
    6.7060   -8.6030   46.2260 C   0  0  0  0  0  0  0  0  0  0  0  0
    5.9840   -8.2650   45.0800 C   0  0  0  0  0  0  0  0  0  0  0  0
    4.3903   -1.0299   38.9963 H   0  0  0  0  0  0  0  0  0  0  0  0
    3.4225   -2.5261   40.7497 H   0  0  0  0  0  0  0  0  0  0  0  0
    3.6582   -4.3829   42.2585 H   0  0  0  0  0  0  0  0  0  0  0  0
    7.3798   -6.5827   42.4613 H   0  0  0  0  0  0  0  0  0  0  0  0
    8.3602   -5.0928   40.7282 H   0  0  0  0  0  0  0  0  0  0  0  0
    5.1858   -0.8892   36.7961 H   0  0  0  0  0  0  0  0  0  0  0  0
    6.7849   -0.3223   36.1399 H   0  0  0  0  0  0  0  0  0  0  0  0
    6.4343   -3.2800   36.5588 H   0  0  0  0  0  0  0  0  0  0  0  0
    5.5426   -2.5200   35.1903 H   0  0  0  0  0  0  0  0  0  0  0  0
    7.5170   -3.0028   34.1522 H   0  0  0  0  0  0  0  0  0  0  0  0
    7.8678   -1.3223   34.8558 H   0  0  0  0  0  0  0  0  0  0  0  0
   10.0059   -4.6491   37.3824 H   0  0  0  0  0  0  0  0  0  0  0  0
   10.7123   -6.9606   36.7655 H   0  0  0  0  0  0  0  0  0  0  0  0
   10.0591   -8.5635   32.0013 H   0  0  0  0  0  0  0  0  0  0  0  0
    9.0519   -6.1691   31.6384 H   0  0  0  0  0  0  0  0  0  0  0  0
    8.6542   -3.9632   33.3443 H   0  0  0  0  0  0  0  0  0  0  0  0
   11.9377   -9.2731   34.1220 H   0  0  0  0  0  0  0  0  0  0  0  0
   11.0895   -8.9218   35.7035 H   0  0  0  0  0  0  0  0  0  0  0  0
   10.1225  -12.1963   33.7620 H   0  0  0  0  0  0  0  0  0  0  0  0
    8.8547   -4.3266   39.1275 H   0  0  0  0  0  0  0  0  0  0  0  0
    8.6341   -2.9368   37.9696 H   0  0  0  0  0  0  0  0  0  0  0  0
    9.1259   -1.4914   40.1322 H   0  0  0  0  0  0  0  0  0  0  0  0
    9.9517   -3.0271   40.6613 H   0  0  0  0  0  0  0  0  0  0  0  0
   11.6946   -1.8163   39.6505 H   0  0  0  0  0  0  0  0  0  0  0  0
   11.1399   -2.9132   38.3406 H   0  0  0  0  0  0  0  0  0  0  0  0
   10.6378   -1.1885   38.3406 H   0  0  0  0  0  0  0  0  0  0  0  0
    5.8550   -4.8912   45.5384 H   0  0  0  0  0  0  0  0  0  0  0  0
    7.1535   -5.5136   47.5688 H   0  0  0  0  0  0  0  0  0  0  0  0
    7.6851   -7.9041   48.0202 H   0  0  0  0  0  0  0  0  0  0  0  0
    6.9487   -9.6574   46.4241 H   0  0  0  0  0  0  0  0  0  0  0  0
    5.6523   -9.0516   44.3863 H   0  0  0  0  0  0  0  0  0  0  0  0
  1 40  1  0  0  0  0
  2  1  2  0  0  0  0
  2 41  1  0  0  0  0
  3  2  1  0  0  0  0
  4  3  2  0  0  0  0
  5  4  1  0  0  0  0
  6  1  1  0  0  0  0
  6  5  2  0  0  0  0
  7  3  1  0  0  0  0
  7 42  1  0  0  0  0
  8  7  2  0  0  0  0
  9  8  1  0  0  0  0
  9 43  1  0  0  0  0
 10  9  2  0  0  0  0
 10  4  1  0  0  0  0
 10 44  1  0  0  0  0
 11  6  1  0  0  0  0
 12 11  1  0  0  0  0
 12 45  1  0  0  0  0
 12 46  1  0  0  0  0
 13 12  1  0  0  0  0
 13 47  1  0  0  0  0
 13 48  1  0  0  0  0
 14 13  1  0  0  0  0
 14 49  1  0  0  0  0
 14 50  1  0  0  0  0
 15 14  1  0  0  0  0
 16 15  1  0  0  0  0
 17 16  2  0  0  0  0
 17 51  1  0  0  0  0
 18 17  1  0  0  0  0
 18 52  1  0  0  0  0
 19 18  2  0  0  0  0
 20 19  1  0  0  0  0
 21 19  1  0  0  0  0
 22 20  1  0  0  0  0
 22 53  1  0  0  0  0
 23 22  2  0  0  0  0
 23 21  1  0  0  0  0
 23 54  1  0  0  0  0
 24 21  2  0  0  0  0
 24 16  1  0  0  0  0
 24 55  1  0  0  0  0
 25 20  1  0  0  0  0
 25 56  1  0  0  0  0
 25 57  1  0  0  0  0
 26 25  1  0  0  0  0
 27 26  2  0  0  0  0
 28 26  1  0  0  0  0
 28 58  1  0  0  0  0
 29  5  1  0  0  0  0
 29 59  1  0  0  0  0
 29 60  1  0  0  0  0
 30 29  1  0  0  0  0
 30 61  1  0  0  0  0
 30 62  1  0  0  0  0
 31 30  1  0  0  0  0
 31 63  1  0  0  0  0
 31 64  1  0  0  0  0
 31 65  1  0  0  0  0
 32  8  1  0  0  0  0
 33 32  2  0  0  0  0
 34 32  1  0  0  0  0
 35 34  2  0  0  0  0
 35 66  1  0  0  0  0
 36 35  1  0  0  0  0
 36 67  1  0  0  0  0
 37 36  2  0  0  0  0
 37 68  1  0  0  0  0
 38 37  1  0  0  0  0
 38 69  1  0  0  0  0
 39 38  2  0  0  0  0
 39 34  1  0  0  0  0
 39 70  1  0  0  0  0
M  END
$$$$
