LS4
  Mrv15b2303062313542D          

 27 30  0  0  0  0            999 V2000
   -0.1526    2.6268    0.0000 O   0  0  0  0  0  0  0  0  0  0  0  0
    0.6724    2.6268    0.0000 C   0  0  0  0  0  0  0  0  0  0  0  0
    1.1573    3.2942    0.0000 N   0  0  0  0  0  0  0  0  0  0  0  0
    1.9420    3.0393    0.0000 C   0  0  0  0  0  0  0  0  0  0  0  0
    2.6564    3.4518    0.0000 C   0  0  0  0  0  0  0  0  0  0  0  0
    3.3709    3.0393    0.0000 C   0  0  0  0  0  0  0  0  0  0  0  0
    3.3709    2.2143    0.0000 C   0  0  0  0  0  0  0  0  0  0  0  0
    2.6564    1.8018    0.0000 C   0  0  0  0  0  0  0  0  0  0  0  0
    1.9420    2.2143    0.0000 C   0  0  0  0  0  0  0  0  0  0  0  0
    1.1573    1.9593    0.0000 C   0  0  0  0  0  0  0  0  0  0  0  0
    0.9024    1.1747    0.0000 C   0  0  0  0  0  0  0  0  0  0  0  0
    0.0954    1.0032    0.0000 N   0  0  0  0  0  0  0  0  0  0  0  0
   -0.1595    0.2186    0.0000 C   0  0  0  0  0  0  0  0  0  0  0  0
    0.3925   -0.3945    0.0000 C   0  0  0  0  0  0  0  0  0  0  0  0
    0.1376   -1.1792    0.0000 C   0  0  0  0  0  0  0  0  0  0  0  0
   -0.6694   -1.3507    0.0000 C   0  0  0  0  0  0  0  0  0  0  0  0
   -1.2214   -0.7376    0.0000 C   0  0  0  0  0  0  0  0  0  0  0  0
   -0.9665    0.0470    0.0000 C   0  0  0  0  0  0  0  0  0  0  0  0
   -0.9243   -2.1353    0.0000 S   0  0  0  0  0  0  0  0  0  0  0  0
   -1.7090   -1.8804    0.0000 O   0  0  0  0  0  0  0  0  0  0  0  0
   -0.1397   -2.3902    0.0000 O   0  0  0  0  0  0  0  0  0  0  0  0
   -1.1793   -2.9199    0.0000 N   0  0  0  0  0  0  0  0  0  0  0  0
   -1.9862   -3.0915    0.0000 C   0  0  0  0  0  0  0  0  0  0  0  0
   -2.3218   -3.8451    0.0000 S   0  0  0  0  0  0  0  0  0  0  0  0
   -3.1423   -3.7589    0.0000 C   0  0  0  0  0  0  0  0  0  0  0  0
   -3.3138   -2.9519    0.0000 C   0  0  0  0  0  0  0  0  0  0  0  0
   -2.5993   -2.5394    0.0000 N   0  0  0  0  0  0  0  0  0  0  0  0
  1  2  2  0  0  0  0
  2  3  1  0  0  0  0
  2 10  1  0  0  0  0
  3  4  1  0  0  0  0
  4  5  4  0  0  0  0
  4  9  4  0  0  0  0
  5  6  4  0  0  0  0
  6  7  4  0  0  0  0
  7  8  4  0  0  0  0
  8  9  4  0  0  0  0
  9 10  1  0  0  0  0
 10 11  2  0  0  0  0
 11 12  1  0  0  0  0
 12 13  1  0  0  0  0
 13 14  4  0  0  0  0
 13 18  4  0  0  0  0
 14 15  4  0  0  0  0
 15 16  4  0  0  0  0
 16 17  4  0  0  0  0
 16 19  1  0  0  0  0
 17 18  4  0  0  0  0
 19 20  2  0  0  0  0
 19 21  2  0  0  0  0
 19 22  1  0  0  0  0
 22 23  1  0  0  0  0
 23 24  4  0  0  0  0
 23 27  4  0  0  0  0
 24 25  4  0  0  0  0
 25 26  4  0  0  0  0
 26 27  4  0  0  0  0
M  END
