@<TRIPOS>MOLECULE
LS4
 41 44 0 0 0
SMALL
GASTEIGER

@<TRIPOS>ATOM
      1 O          -2.2040    1.6750    4.1180 O.2     1  LIG1       -0.2698
      2 C          -1.2680    1.0650    4.6060 C.2     1  LIG1        0.2501
      3 N          -0.9090    1.0720    5.9010 N.am    1  LIG1       -0.2809
      4 C           0.2020    0.2690    6.1230 C.ar    1  LIG1        0.0416
      5 C           0.9150   -0.0240    7.2810 C.ar    1  LIG1       -0.0399
      6 C           2.0040   -0.8690    7.2270 C.ar    1  LIG1       -0.0600
      7 C           2.4000   -1.4340    6.0250 C.ar    1  LIG1       -0.0611
      8 C           1.7040   -1.1530    4.8670 C.ar    1  LIG1       -0.0521
      9 C           0.6050   -0.3030    4.9110 C.ar    1  LIG1        0.0095
     10 C          -0.3400    0.1880    3.8820 C.2     1  LIG1        0.0596
     11 C          -0.3450   -0.1070    2.5490 C.2     1  LIG1        0.0065
     12 N          -1.2930    0.4340    1.7360 N.pl3   1  LIG1       -0.3198
     13 C          -1.2980    0.1310    0.3710 C.ar    1  LIG1        0.0310
     14 C          -2.2650    0.6830   -0.4600 C.ar    1  LIG1       -0.0387
     15 C          -2.2670    0.3820   -1.8070 C.ar    1  LIG1       -0.0333
     16 C          -1.3090   -0.4670   -2.3290 C.ar    1  LIG1        0.1087
     17 C          -0.3460   -1.0180   -1.5040 C.ar    1  LIG1       -0.0333
     18 C          -0.3340   -0.7170   -0.1560 C.ar    1  LIG1       -0.0387
     19 S          -1.3160   -0.8500   -4.0490 S.O2    1  LIG1        0.0738
     20 O          -0.6200   -2.0820   -4.1740 O.2     1  LIG1       -0.1499
     21 O          -2.6440   -0.6070   -4.4930 O.2     1  LIG1       -0.1499
     22 N          -0.3730    0.2780   -4.8110 N.pl3   1  LIG1       -0.1938
     23 C           0.9630    0.4070   -4.4710 C.ar    1  LIG1        0.1774
     24 S           2.1510    1.4990   -5.1120 S.2     1  LIG1       -0.0594
     25 C           3.5290    0.9590   -4.1100 C.ar    1  LIG1       -0.0030
     26 C           2.9400   -0.0130   -3.3750 C.ar    1  LIG1        0.0369
     27 N           1.6590   -0.2630   -3.5730 N.ar    1  LIG1       -0.2321
     28 H          -1.3680    1.5740    6.5920 H       1  LIG1        0.1552
     29 H           0.6160    0.4100    8.2230 H       1  LIG1        0.0636
     30 H           2.5530   -1.0930    8.1290 H       1  LIG1        0.0618
     31 H           3.2540   -2.0940    5.9950 H       1  LIG1        0.0618
     32 H           2.0130   -1.5920    3.9290 H       1  LIG1        0.0624
     33 H           0.4020   -0.7700    2.1410 H       1  LIG1        0.0789
     34 H          -1.9640    1.0300    2.1030 H       1  LIG1        0.1516
     35 H          -3.0130    1.3470   -0.0530 H       1  LIG1        0.0637
     36 H          -3.0180    0.8100   -2.4540 H       1  LIG1        0.0638
     37 H           0.4000   -1.6820   -1.9150 H       1  LIG1        0.0638
     38 H           0.4180   -1.1470    0.4870 H       1  LIG1        0.0637
     39 H          -0.7570    0.8480   -5.4950 H       1  LIG1        0.1757
     40 H           4.5500    1.3110   -4.0950 H       1  LIG1        0.0710
     41 H           3.5040   -0.5690   -2.6420 H       1  LIG1        0.0835
@<TRIPOS>BOND
     1     1     2    2
     2     2     3   am
     3     2    10    1
     4     3     4    1
     5     3    28    1
     6     4     5   ar
     7     4     9   ar
     8     5     6   ar
     9     5    29    1
    10     6     7   ar
    11     6    30    1
    12     7     8   ar
    13     7    31    1
    14     8     9   ar
    15     8    32    1
    16     9    10    1
    17    10    11    2
    18    11    12    1
    19    11    33    1
    20    12    13    1
    21    12    34    1
    22    13    14   ar
    23    13    18   ar
    24    14    15   ar
    25    14    35    1
    26    15    16   ar
    27    15    36    1
    28    16    17   ar
    29    16    19    1
    30    17    18   ar
    31    17    37    1
    32    18    38    1
    33    19    20    2
    34    19    21    2
    35    19    22    1
    36    22    23    1
    37    22    39    1
    38    23    24   ar
    39    23    27   ar
    40    24    25   ar
    41    25    26   ar
    42    25    40    1
    43    26    27   ar
    44    26    41    1
