2X4
  -OEChem-02242319213D

 44 48  0     1  0  0  0  0  0999 V2000
    5.7970    0.2770   -0.5910 C   0  0  0  0  0  0  0  0  0  0  0  0
    5.7590    1.3770    0.3200 O   0  0  0  0  0  0  0  0  0  0  0  0
    4.6300    2.2370    0.1520 C   0  0  0  0  0  0  0  0  0  0  0  0
    3.3450    1.4420    0.3890 C   0  0  2  0  0  0  0  0  0  0  0  0
    3.3020    0.2580   -0.5900 C   0  0  1  0  0  0  0  0  0  0  0  0
    4.5560   -0.5960   -0.3880 C   0  0  0  0  0  0  0  0  0  0  0  0
    2.2120    2.2800    0.1550 O   0  0  0  0  0  0  0  0  0  0  0  0
    0.9870    1.6950    0.0920 C   0  0  0  0  0  0  0  0  0  0  0  0
    0.8450    0.3330   -0.1300 C   0  0  0  0  0  0  0  0  0  0  0  0
    2.0570   -0.5640   -0.2850 C   0  0  2  0  0  0  0  0  0  0  0  0
   -0.1410    2.4940    0.2540 C   0  0  0  0  0  0  0  0  0  0  0  0
   -1.4010    1.9400    0.1930 C   0  0  0  0  0  0  0  0  0  0  0  0
   -1.5480    0.5730   -0.0320 C   0  0  0  0  0  0  0  0  0  0  0  0
   -0.4180   -0.2260   -0.1930 C   0  0  0  0  0  0  0  0  0  0  0  0
    2.2520   -1.3930    0.9120 N   0  0  0  0  0  0  0  0  0  0  0  0
    1.8470   -2.5980    0.6410 C   0  0  0  0  0  0  0  0  0  0  0  0
    1.3690   -2.7430   -0.6120 O   0  0  0  0  0  0  0  0  0  0  0  0
    1.8210   -1.6130   -1.3890 C   0  0  0  0  0  0  0  0  0  0  0  0
   -2.9010   -0.0300   -0.1010 C   0  0  0  0  0  0  0  0  0  0  0  0
   -4.0400    0.7630    0.0600 C   0  0  0  0  0  0  0  0  0  0  0  0
   -5.2820    0.1520   -0.0130 C   0  0  0  0  0  0  0  0  0  0  0  0
   -5.3530   -1.2110   -0.2400 C   0  0  0  0  0  0  0  0  0  0  0  0
   -4.2590   -1.9340   -0.3870 N   0  0  0  0  0  0  0  0  0  0  0  0
   -3.0580   -1.3960   -0.3310 C   0  0  0  0  0  0  0  0  0  0  0  0
    1.9020   -3.6290    1.5470 N   0  0  0  0  0  0  0  0  0  0  0  0
   -6.7330    1.0860    0.1790 Cl  0  0  0  0  0  0  0  0  0  0  0  0
    5.8130    0.6530   -1.6140 H   0  0  0  0  0  0  0  0  0  0  0  0
    6.6930   -0.3160   -0.4080 H   0  0  0  0  0  0  0  0  0  0  0  0
    4.6880    3.0570    0.8670 H   0  0  0  0  0  0  0  0  0  0  0  0
    4.6280    2.6380   -0.8620 H   0  0  0  0  0  0  0  0  0  0  0  0
    3.3240    1.0730    1.4140 H   0  0  0  0  0  0  0  0  0  0  0  0
    3.2560    0.6280   -1.6130 H   0  0  0  0  0  0  0  0  0  0  0  0
    4.5620   -1.4120   -1.1120 H   0  0  0  0  0  0  0  0  0  0  0  0
    4.5600   -1.0050    0.6230 H   0  0  0  0  0  0  0  0  0  0  0  0
   -0.0290    3.5530    0.4290 H   0  0  0  0  0  0  0  0  0  0  0  0
   -2.2730    2.5650    0.3190 H   0  0  0  0  0  0  0  0  0  0  0  0
   -0.5300   -1.2860   -0.3680 H   0  0  0  0  0  0  0  0  0  0  0  0
    1.0500   -1.2830   -2.0850 H   0  0  0  0  0  0  0  0  0  0  0  0
    2.7480   -1.8450   -1.9140 H   0  0  0  0  0  0  0  0  0  0  0  0
   -3.9550    1.8250    0.2360 H   0  0  0  0  0  0  0  0  0  0  0  0
   -6.3180   -1.6920   -0.2970 H   0  0  0  0  0  0  0  0  0  0  0  0
   -2.1850   -2.0200   -0.4570 H   0  0  0  0  0  0  0  0  0  0  0  0
    2.2560   -3.4740    2.4370 H   0  0  0  0  0  0  0  0  0  0  0  0
    1.5880   -4.5110    1.2970 H   0  0  0  0  0  0  0  0  0  0  0  0
  1  6  1  0  0  0  0
  1  2  1  0  0  0  0
 17 18  1  0  0  0  0
 10 18  1  0  0  0  0
  5  6  1  0  0  0  0
  5 10  1  0  0  0  0
  4  5  1  0  0  0  0
  2  3  1  0  0  0  0
  3  4  1  0  0  0  0
 16 17  1  0  0  0  0
  4  7  1  0  0  0  0
  7  8  1  0  0  0  0
  9 10  1  0  0  0  0
 10 15  1  0  0  0  0
  8  9  2  0  0  0  0
  8 11  1  0  0  0  0
  9 14  1  0  0  0  0
 11 12  2  0  0  0  0
 13 14  2  0  0  0  0
 23 24  2  0  0  0  0
 19 24  1  0  0  0  0
 12 13  1  0  0  0  0
 13 19  1  0  0  0  0
 15 16  2  0  0  0  0
 16 25  1  0  0  0  0
 22 23  1  0  0  0  0
 19 20  2  0  0  0  0
 21 22  2  0  0  0  0
 20 21  1  0  0  0  0
 21 26  1  0  0  0  0
  1 27  1  0  0  0  0
  1 28  1  0  0  0  0
  3 29  1  0  0  0  0
  3 30  1  0  0  0  0
  4 31  1  0  0  0  0
  5 32  1  0  0  0  0
  6 33  1  0  0  0  0
  6 34  1  0  0  0  0
 11 35  1  0  0  0  0
 12 36  1  0  0  0  0
 14 37  1  0  0  0  0
 18 38  1  0  0  0  0
 18 39  1  0  0  0  0
 20 40  1  0  0  0  0
 22 41  1  0  0  0  0
 24 42  1  0  0  0  0
 25 43  1  0  0  0  0
 25 44  1  0  0  0  0
M  END
> <OPENEYE_ISO_SMILES>
c1cc2c(cc1c3cc(cnc3)Cl)[C@@]4(COC(=N4)N)[C@@H]5CCOC[C@H]5O2

> <OPENEYE_INCHI>
InChI=1S/C19H18ClN3O3/c20-13-5-12(7-22-8-13)11-1-2-16-15(6-11)19(10-25-18(21)23-19)14-3-4-24-9-17(14)26-16/h1-2,5-8,14,17H,3-4,9-10H2,(H2,21,23)/t14-,17-,19-/m1/s1

> <OPENEYE_INCHIKEY>
BGRWOLNAPSRJIS-LSBZLQRGSA-N

> <FORMULA>
C19H18ClN3O3

$$$$
