@<TRIPOS>MOLECULE
2X4
 44 48 0 0 0
SMALL
GASTEIGER

@<TRIPOS>ATOM
      1 C           5.7970    0.2770   -0.5910 C.3     1  LIG1        0.0483
      2 O           5.7590    1.3770    0.3200 O.3     1  LIG1       -0.3761
      3 C           4.6300    2.2370    0.1520 C.3     1  LIG1        0.0849
      4 C           3.3450    1.4420    0.3890 C.3     1  LIG1        0.1288
      5 C           3.3020    0.2580   -0.5900 C.3     1  LIG1        0.0331
      6 C           4.5560   -0.5960   -0.3880 C.3     1  LIG1       -0.0205
      7 O           2.2120    2.2800    0.1550 O.3     1  LIG1       -0.4858
      8 C           0.9870    1.6950    0.0920 C.ar    1  LIG1        0.1266
      9 C           0.8450    0.3330   -0.1300 C.ar    1  LIG1        0.0259
     10 C           2.0570   -0.5640   -0.2850 C.3     1  LIG1        0.1350
     11 C          -0.1410    2.4940    0.2540 C.ar    1  LIG1       -0.0190
     12 C          -1.4010    1.9400    0.1930 C.ar    1  LIG1       -0.0505
     13 C          -1.5480    0.5730   -0.0320 C.ar    1  LIG1       -0.0158
     14 C          -0.4180   -0.2260   -0.1930 C.ar    1  LIG1       -0.0449
     15 N           2.2520   -1.3930    0.9120 N.2     1  LIG1       -0.2216
     16 C           1.8470   -2.5980    0.6410 C.2     1  LIG1        0.2761
     17 O           1.3690   -2.7430   -0.6120 O.2     1  LIG1       -0.4631
     18 C           1.8210   -1.6130   -1.3890 C.3     1  LIG1        0.1222
     19 C          -2.9010   -0.0300   -0.1010 C.ar    1  LIG1        0.0016
     20 C          -4.0400    0.7630    0.0600 C.ar    1  LIG1       -0.0327
     21 C          -5.2820    0.1520   -0.0130 C.ar    1  LIG1        0.0596
     22 C          -5.3530   -1.2110   -0.2400 C.ar    1  LIG1        0.0459
     23 N          -4.2590   -1.9340   -0.3870 N.ar    1  LIG1       -0.2612
     24 C          -3.0580   -1.3960   -0.3310 C.ar    1  LIG1        0.0353
     25 N           1.9020   -3.6290    1.5470 N.pl3   1  LIG1       -0.3134
     26 CL         -6.7330    1.0860    0.1790 Cl      1  LIG1       -0.0820
     27 H           5.8130    0.6530   -1.6140 H       1  LIG1        0.0560
     28 H           6.6930   -0.3160   -0.4080 H       1  LIG1        0.0560
     29 H           4.6880    3.0570    0.8670 H       1  LIG1        0.0597
     30 H           4.6280    2.6380   -0.8620 H       1  LIG1        0.0597
     31 H           3.3240    1.0730    1.4140 H       1  LIG1        0.0760
     32 H           3.2560    0.6280   -1.6130 H       1  LIG1        0.0366
     33 H           4.5620   -1.4120   -1.1120 H       1  LIG1        0.0292
     34 H           4.5600   -1.0050    0.6230 H       1  LIG1        0.0292
     35 H          -0.0290    3.5530    0.4290 H       1  LIG1        0.0654
     36 H          -2.2730    2.5650    0.3190 H       1  LIG1        0.0625
     37 H          -0.5300   -1.2860   -0.3680 H       1  LIG1        0.0628
     38 H           1.0500   -1.2830   -2.0850 H       1  LIG1        0.0725
     39 H           2.7480   -1.8450   -1.9140 H       1  LIG1        0.0725
     40 H          -3.9550    1.8250    0.2360 H       1  LIG1        0.0639
     41 H          -6.3180   -1.6920   -0.2970 H       1  LIG1        0.0844
     42 H          -2.1850   -2.0200   -0.4570 H       1  LIG1        0.0836
     43 H           2.2560   -3.4740    2.4370 H       1  LIG1        0.1466
     44 H           1.5880   -4.5110    1.2970 H       1  LIG1        0.1466
@<TRIPOS>BOND
     1     1     6    1
     2     1     2    1
     3    17    18    1
     4    10    18    1
     5     5     6    1
     6     5    10    1
     7     4     5    1
     8     2     3    1
     9     3     4    1
    10    16    17    1
    11     4     7    1
    12     7     8    1
    13     9    10    1
    14    10    15    1
    15     8     9   ar
    16     8    11   ar
    17     9    14   ar
    18    11    12   ar
    19    13    14   ar
    20    23    24   ar
    21    19    24   ar
    22    12    13   ar
    23    13    19    1
    24    15    16    2
    25    16    25    1
    26    22    23   ar
    27    19    20   ar
    28    21    22   ar
    29    20    21   ar
    30    21    26    1
    31     1    27    1
    32     1    28    1
    33     3    29    1
    34     3    30    1
    35     4    31    1
    36     5    32    1
    37     6    33    1
    38     6    34    1
    39    11    35    1
    40    12    36    1
    41    14    37    1
    42    18    38    1
    43    18    39    1
    44    20    40    1
    45    22    41    1
    46    24    42    1
    47    25    43    1
    48    25    44    1
