2X4
  Mrv15b2303062314092D          

 26 30  0  0  0  0            999 V2000
   -3.0392   -0.2782    0.0000 C   0  0  0  0  0  0  0  0  0  0  0  0
   -3.0392   -1.1032    0.0000 O   0  0  0  0  0  0  0  0  0  0  0  0
   -2.3247   -1.5157    0.0000 C   0  0  0  0  0  0  0  0  0  0  0  0
   -1.6102   -1.1032    0.0000 C   0  0  2  0  0  0  0  0  0  0  0  0
   -1.6102   -0.2782    0.0000 C   0  0  1  0  0  0  0  0  0  0  0  0
   -2.3247    0.1343    0.0000 C   0  0  0  0  0  0  0  0  0  0  0  0
   -0.8958   -1.5157    0.0000 O   0  0  0  0  0  0  0  0  0  0  0  0
   -0.1813   -1.1032    0.0000 C   0  0  0  0  0  0  0  0  0  0  0  0
   -0.1813   -0.2782    0.0000 C   0  0  0  0  0  0  0  0  0  0  0  0
   -0.8958    0.1343    0.0000 C   0  0  2  0  0  0  0  0  0  0  0  0
    0.5332   -1.5157    0.0000 C   0  0  0  0  0  0  0  0  0  0  0  0
    1.2477   -1.1032    0.0000 C   0  0  0  0  0  0  0  0  0  0  0  0
    1.2477   -0.2782    0.0000 C   0  0  0  0  0  0  0  0  0  0  0  0
    0.5332    0.1343    0.0000 C   0  0  0  0  0  0  0  0  0  0  0  0
   -0.2283    0.6192    0.0000 N   0  0  0  0  0  0  0  0  0  0  0  0
   -0.4833    1.4038    0.0000 C   0  0  0  0  0  0  0  0  0  0  0  0
   -1.3083    1.4038    0.0000 O   0  0  0  0  0  0  0  0  0  0  0  0
   -1.5632    0.6192    0.0000 C   0  0  0  0  0  0  0  0  0  0  0  0
    1.9621    0.1343    0.0000 C   0  0  0  0  0  0  0  0  0  0  0  0
    2.6766   -0.2782    0.0000 C   0  0  0  0  0  0  0  0  0  0  0  0
    3.3911    0.1343    0.0000 C   0  0  0  0  0  0  0  0  0  0  0  0
    3.3911    0.9593    0.0000 C   0  0  0  0  0  0  0  0  0  0  0  0
    2.6766    1.3718    0.0000 N   0  0  0  0  0  0  0  0  0  0  0  0
    1.9621    0.9593    0.0000 C   0  0  0  0  0  0  0  0  0  0  0  0
    0.0017    2.0713    0.0000 N   0  0  0  0  0  0  0  0  0  0  0  0
    4.1055   -0.2782    0.0000 Cl  0  0  0  0  0  0  0  0  0  0  0  0
  1  6  1  0  0  0  0
  1  2  1  0  0  0  0
 17 18  1  0  0  0  0
 10 18  1  6  0  0  0
  5  6  1  1  0  0  0
  5 10  1  0  0  0  0
  4  5  1  0  0  0  0
  2  3  1  0  0  0  0
  3  4  1  0  0  0  0
 16 17  1  0  0  0  0
  4  7  1  6  0  0  0
  7  8  1  0  0  0  0
  9 10  1  0  0  0  0
 10 15  1  1  0  0  0
  8  9  4  0  0  0  0
  8 11  4  0  0  0  0
  9 14  4  0  0  0  0
 11 12  4  0  0  0  0
 13 14  4  0  0  0  0
 23 24  4  0  0  0  0
 19 24  4  0  0  0  0
 12 13  4  0  0  0  0
 13 19  1  0  0  0  0
 15 16  2  0  0  0  0
 16 25  1  0  0  0  0
 22 23  4  0  0  0  0
 19 20  4  0  0  0  0
 21 22  4  0  0  0  0
 20 21  4  0  0  0  0
 21 26  1  0  0  0  0
M  END
