@<TRIPOS>MOLECULE
7Z5
 42 43 0 0 0
SMALL
GASTEIGER

@<TRIPOS>ATOM
      1 C           0.8750   44.3490    6.2830 C.ar    1  UNL1        0.0817
      2 C           0.2460   44.4070    7.5240 C.ar    1  UNL1        0.0475
      3 C           2.1510   43.8040    6.1740 C.ar    1  UNL1       -0.0249
      4 C           0.9070   43.9100    8.6460 C.ar    1  UNL1       -0.0379
      5 C           2.8130   43.3060    7.2920 C.ar    1  UNL1        0.0306
      6 C           2.1820   43.3630    8.5320 C.ar    1  UNL1       -0.0389
      7 N           4.0190   42.7520    7.1650 N.pl3   1  UNL1       -0.3285
      8 C           5.0270   43.4630    6.3620 C.3     1  UNL1        0.0010
      9 C           4.2910   41.4660    7.8270 C.3     1  UNL1        0.0384
     10 C           4.7660   40.4310    6.8040 C.ar    1  UNL1       -0.0121
     11 C           5.7200   39.4810    7.1530 C.ar    1  UNL1       -0.0542
     12 C           6.1500   38.5660    6.1960 C.ar    1  UNL1       -0.0433
     13 C           5.6050   38.6330    4.9180 C.ar    1  UNL1        0.0276
     14 N           4.6970   39.5490    4.6240 N.ar    1  UNL1       -0.2629
     15 C           4.2660   40.4350    5.5060 C.ar    1  UNL1        0.0322
     16 C           0.1650   44.8600    5.0260 C.2     1  UNL1        0.3387
     17 O           0.5540   45.9420    4.5330 O.2     1  UNL1       -0.2451
     18 O          -0.7630   44.1720    4.5500 O.3     1  UNL1       -0.4771
     19 N          -0.9710   44.9450    7.6040 N.am    1  UNL1       -0.2848
     20 C          -1.2210   46.2460    7.7450 C.2     1  UNL1        0.2169
     21 O          -0.3610   47.1220    7.8140 O.2     1  UNL1       -0.2755
     22 C          -2.7070   46.6050    7.8150 C.3     1  UNL1        0.0215
     23 C          -3.5830   45.4100    7.4350 C.3     1  UNL1       -0.0570
     24 H           2.6428   43.7664    5.1908 H       1  UNL1        0.0645
     25 H           0.4169   43.9504    9.6300 H       1  UNL1        0.0637
     26 H           2.6931   42.9742    9.4251 H       1  UNL1        0.0637
     27 H           5.7405   43.9662    7.0311 H       1  UNL1        0.0428
     28 H           5.5646   42.7431    5.7274 H       1  UNL1        0.0428
     29 H           4.5292   44.2110    5.7274 H       1  UNL1        0.0428
     30 H           5.0719   41.6081    8.5886 H       1  UNL1        0.0513
     31 H           3.3655   41.1039    8.2986 H       1  UNL1        0.0513
     32 H           6.1300   39.4530    8.1734 H       1  UNL1        0.0622
     33 H           6.9050   37.8059    6.4453 H       1  UNL1        0.0633
     34 H           5.9312   37.9197    4.1468 H       1  UNL1        0.0829
     35 H           3.5096   41.1776    5.2122 H       1  UNL1        0.0833
     36 H          -1.2397   44.4779    3.7380 H       1  UNL1        0.2954
     37 H          -1.7783   44.3073    7.5530 H       1  UNL1        0.1548
     38 H          -2.9526   46.9183    8.8405 H       1  UNL1        0.0356
     39 H          -2.9023   47.4206    7.1032 H       1  UNL1        0.0356
     40 H          -3.9453   44.9158    8.3485 H       1  UNL1        0.0234
     41 H          -4.4412   45.7584    6.8416 H       1  UNL1        0.0234
     42 H          -2.9925   44.6964    6.8416 H       1  UNL1        0.0234
@<TRIPOS>BOND
     1     2     1   ar
     2     3     1   ar
     3     4     2   ar
     4     5     3   ar
     5     6     5   ar
     6     6     4   ar
     7     7     5    1
     8     8     7    1
     9     9     7    1
    10    10     9    1
    11    11    10   ar
    12    12    11   ar
    13    13    12   ar
    14    14    13   ar
    15    15    14   ar
    16    15    10   ar
    17    16     1    1
    18    17    16    2
    19    18    16    1
    20    19     2    1
    21    20    19   am
    22    21    20    2
    23    22    20    1
    24    23    22    1
    25     3    24    1
    26     4    25    1
    27     6    26    1
    28     8    27    1
    29     8    28    1
    30     8    29    1
    31     9    30    1
    32     9    31    1
    33    11    32    1
    34    12    33    1
    35    13    34    1
    36    15    35    1
    37    18    36    1
    38    19    37    1
    39    22    38    1
    40    22    39    1
    41    23    40    1
    42    23    41    1
    43    23    42    1
