@<TRIPOS>MOLECULE
IIE
 61 64 0 0 0
SMALL
GASTEIGER

@<TRIPOS>ATOM
      1 C           1.3090    1.5890   19.6600 C.ar    1  UNL1       -0.0598
      2 C           2.5560    2.2060   19.1940 C.ar    1  UNL1       -0.0376
      3 C           2.9950    3.4960   19.7900 C.ar    1  UNL1        0.0501
      4 C           2.2000    4.1530   20.8370 C.ar    1  UNL1        0.0006
      5 C           0.9770    3.5080   21.2980 C.ar    1  UNL1       -0.0526
      6 C           0.5220    2.2410   20.7200 C.ar    1  UNL1       -0.0611
      7 N           4.0710    4.3280   19.5570 N.ar    1  UNL1       -0.3273
      8 C           3.9940    5.3830   20.3540 C.ar    1  UNL1        0.1058
      9 C           2.8580    5.3400   21.1550 C.ar    1  UNL1       -0.0239
     10 C           4.9840    6.3050   20.5210 C.2     1  UNL1        0.2608
     11 N           5.8720    6.0350   21.4890 N.am    1  UNL1       -0.3072
     12 O           5.0020    7.3050   19.7930 O.2     1  UNL1       -0.2686
     13 C           6.7890    7.1300   21.7720 C.3     1  UNL1        0.0258
     14 C           6.6950    7.4010   23.2730 C.3     1  UNL1       -0.0216
     15 C           7.7120    8.4410   23.6930 C.3     1  UNL1        0.0008
     16 N           9.0670    7.9740   23.3050 N.3     1  UNL1       -0.2998
     17 C           9.1840    7.8310   21.8240 C.3     1  UNL1        0.0008
     18 C           8.2190    6.7450   21.3780 C.3     1  UNL1       -0.0216
     19 C          10.0610    8.8520   23.9770 C.3     1  UNL1        0.0048
     20 C          10.3540    8.4280   25.4430 C.3     1  UNL1       -0.0497
     21 C           9.5500   10.2860   23.9270 C.3     1  UNL1       -0.0497
     22 C           5.1420    4.0370   18.6090 C.3     1  UNL1        0.1005
     23 C           5.9730    2.9470   19.2460 C.2     1  UNL1        0.2370
     24 N           5.8860    1.8280   18.4990 N.am    1  UNL1       -0.2840
     25 C           6.8940    0.9520   18.2730 C.ar    1  UNL1        0.0335
     26 C           6.6010   -0.2140   17.4510 C.ar    1  UNL1       -0.0391
     27 C           8.2580    1.1510   18.7480 C.ar    1  UNL1       -0.0391
     28 C           7.6440   -1.1680   17.0920 C.ar    1  UNL1       -0.0416
     29 C           9.0050   -0.9390   17.5530 C.ar    1  UNL1        0.0411
     30 CL         10.2590   -1.9460   17.0630 Cl      1  UNL1       -0.0835
     31 C           9.3030    0.2160   18.3940 C.ar    1  UNL1       -0.0416
     32 O           6.6300    3.1350   20.2770 O.2     1  UNL1       -0.2735
     33 H           0.9632    0.6425   19.2189 H       1  UNL1        0.0618
     34 H           3.1592    1.7201   18.4129 H       1  UNL1        0.0638
     35 H           0.3845    3.9814   22.0948 H       1  UNL1        0.0624
     36 H          -0.4085    1.7763   21.0783 H       1  UNL1        0.0618
     37 H           2.5418    6.0925   21.8924 H       1  UNL1        0.0646
     38 H           5.9026    5.1341   21.9874 H       1  UNL1        0.1493
     39 H           6.5259    8.0285   21.1946 H       1  UNL1        0.0499
     40 H           5.6852    7.7662   23.5116 H       1  UNL1        0.0295
     41 H           6.9003    6.4661   23.8150 H       1  UNL1        0.0295
     42 H           7.4928    9.3952   23.1915 H       1  UNL1        0.0427
     43 H           7.6664    8.5877   24.7822 H       1  UNL1        0.0427
     44 H           8.9263    8.7825   21.3358 H       1  UNL1        0.0427
     45 H          10.2143    7.5633   21.5467 H       1  UNL1        0.0427
     46 H           8.4885    5.7950   21.8627 H       1  UNL1        0.0295
     47 H           8.2776    6.6323   20.2854 H       1  UNL1        0.0295
     48 H          11.0165    8.7605   23.4397 H       1  UNL1        0.0457
     49 H           9.8669    9.1329   26.1329 H       1  UNL1        0.0245
     50 H           9.9624    7.4149   25.6169 H       1  UNL1        0.0245
     51 H          11.4401    8.4361   25.6169 H       1  UNL1        0.0245
     52 H           9.4156   10.6633   24.9515 H       1  UNL1        0.0245
     53 H          10.2787   10.9167   23.3967 H       1  UNL1        0.0245
     54 H           8.5867   10.3137   23.3967 H       1  UNL1        0.0245
     55 H           4.7231    3.6897   17.6530 H       1  UNL1        0.0588
     56 H           5.7451    4.9313   18.3934 H       1  UNL1        0.0588
     57 H           4.9758    1.6218   18.0632 H       1  UNL1        0.1549
     58 H           5.5735   -0.3782   17.0942 H       1  UNL1        0.0636
     59 H           8.4942    2.0193   19.3807 H       1  UNL1        0.0636
     60 H           7.4047   -2.0502   16.4800 H       1  UNL1        0.0633
     61 H          10.3277    0.3762   18.7605 H       1  UNL1        0.0633
@<TRIPOS>BOND
     1     2     1   ar
     2     3     2   ar
     3     4     3   ar
     4     5     4   ar
     5     6     5   ar
     6     6     1   ar
     7     7     3   ar
     8     8     7   ar
     9     9     8   ar
    10     9     4   ar
    11    10     8    1
    12    11    10   am
    13    12    10    2
    14    13    11    1
    15    14    13    1
    16    15    14    1
    17    16    15    1
    18    17    16    1
    19    18    13    1
    20    18    17    1
    21    19    16    1
    22    20    19    1
    23    21    19    1
    24    22     7    1
    25    23    22    1
    26    24    23   am
    27    25    24    1
    28    26    25   ar
    29    27    25   ar
    30    28    26   ar
    31    29    28   ar
    32    30    29    1
    33    31    29   ar
    34    31    27   ar
    35    32    23    2
    36     1    33    1
    37     2    34    1
    38     5    35    1
    39     6    36    1
    40     9    37    1
    41    11    38    1
    42    13    39    1
    43    14    40    1
    44    14    41    1
    45    15    42    1
    46    15    43    1
    47    17    44    1
    48    17    45    1
    49    18    46    1
    50    18    47    1
    51    19    48    1
    52    20    49    1
    53    20    50    1
    54    20    51    1
    55    21    52    1
    56    21    53    1
    57    21    54    1
    58    22    55    1
    59    22    56    1
    60    24    57    1
    61    26    58    1
    62    27    59    1
    63    28    60    1
    64    31    61    1
