IIE
 OpenBabel06092214563D

 61 64  0  0  0  0  0  0  0  0999 V2000
    1.3090    1.5890   19.6600 C   0  0  0  0  0  0  0  0  0  0  0  0
    2.5560    2.2060   19.1940 C   0  0  0  0  0  0  0  0  0  0  0  0
    2.9950    3.4960   19.7900 C   0  0  0  0  0  0  0  0  0  0  0  0
    2.2000    4.1530   20.8370 C   0  0  0  0  0  0  0  0  0  0  0  0
    0.9770    3.5080   21.2980 C   0  0  0  0  0  0  0  0  0  0  0  0
    0.5220    2.2410   20.7200 C   0  0  0  0  0  0  0  0  0  0  0  0
    4.0710    4.3280   19.5570 N   0  0  0  0  0  0  0  0  0  0  0  0
    3.9940    5.3830   20.3540 C   0  0  0  0  0  0  0  0  0  0  0  0
    2.8580    5.3400   21.1550 C   0  0  0  0  0  0  0  0  0  0  0  0
    4.9840    6.3050   20.5210 C   0  0  0  0  0  0  0  0  0  0  0  0
    5.8720    6.0350   21.4890 N   0  0  0  0  0  0  0  0  0  0  0  0
    5.0020    7.3050   19.7930 O   0  0  0  0  0  0  0  0  0  0  0  0
    6.7890    7.1300   21.7720 C   0  0  0  0  0  0  0  0  0  0  0  0
    6.6950    7.4010   23.2730 C   0  0  0  0  0  0  0  0  0  0  0  0
    7.7120    8.4410   23.6930 C   0  0  0  0  0  0  0  0  0  0  0  0
    9.0670    7.9740   23.3050 N   0  0  0  0  0  0  0  0  0  0  0  0
    9.1840    7.8310   21.8240 C   0  0  0  0  0  0  0  0  0  0  0  0
    8.2190    6.7450   21.3780 C   0  0  0  0  0  0  0  0  0  0  0  0
   10.0610    8.8520   23.9770 C   0  0  0  0  0  0  0  0  0  0  0  0
   10.3540    8.4280   25.4430 C   0  0  0  0  0  0  0  0  0  0  0  0
    9.5500   10.2860   23.9270 C   0  0  0  0  0  0  0  0  0  0  0  0
    5.1420    4.0370   18.6090 C   0  0  0  0  0  0  0  0  0  0  0  0
    5.9730    2.9470   19.2460 C   0  0  0  0  0  0  0  0  0  0  0  0
    5.8860    1.8280   18.4990 N   0  0  0  0  0  0  0  0  0  0  0  0
    6.8940    0.9520   18.2730 C   0  0  0  0  0  0  0  0  0  0  0  0
    6.6010   -0.2140   17.4510 C   0  0  0  0  0  0  0  0  0  0  0  0
    8.2580    1.1510   18.7480 C   0  0  0  0  0  0  0  0  0  0  0  0
    7.6440   -1.1680   17.0920 C   0  0  0  0  0  0  0  0  0  0  0  0
    9.0050   -0.9390   17.5530 C   0  0  0  0  0  0  0  0  0  0  0  0
   10.2590   -1.9460   17.0630 Cl  0  0  0  0  0  0  0  0  0  0  0  0
    9.3030    0.2160   18.3940 C   0  0  0  0  0  0  0  0  0  0  0  0
    6.6300    3.1350   20.2770 O   0  0  0  0  0  0  0  0  0  0  0  0
    0.9632    0.6425   19.2189 H   0  0  0  0  0  0  0  0  0  0  0  0
    3.1592    1.7201   18.4129 H   0  0  0  0  0  0  0  0  0  0  0  0
    0.3845    3.9814   22.0948 H   0  0  0  0  0  0  0  0  0  0  0  0
   -0.4085    1.7763   21.0783 H   0  0  0  0  0  0  0  0  0  0  0  0
    2.5418    6.0925   21.8924 H   0  0  0  0  0  0  0  0  0  0  0  0
    5.9026    5.1341   21.9874 H   0  0  0  0  0  0  0  0  0  0  0  0
    6.5259    8.0285   21.1946 H   0  0  0  0  0  0  0  0  0  0  0  0
    5.6852    7.7662   23.5116 H   0  0  0  0  0  0  0  0  0  0  0  0
    6.9003    6.4661   23.8150 H   0  0  0  0  0  0  0  0  0  0  0  0
    7.4928    9.3952   23.1915 H   0  0  0  0  0  0  0  0  0  0  0  0
    7.6664    8.5877   24.7822 H   0  0  0  0  0  0  0  0  0  0  0  0
    8.9263    8.7825   21.3358 H   0  0  0  0  0  0  0  0  0  0  0  0
   10.2143    7.5633   21.5467 H   0  0  0  0  0  0  0  0  0  0  0  0
    8.4885    5.7950   21.8627 H   0  0  0  0  0  0  0  0  0  0  0  0
    8.2776    6.6323   20.2854 H   0  0  0  0  0  0  0  0  0  0  0  0
   11.0165    8.7605   23.4397 H   0  0  0  0  0  0  0  0  0  0  0  0
    9.8669    9.1329   26.1329 H   0  0  0  0  0  0  0  0  0  0  0  0
    9.9624    7.4149   25.6169 H   0  0  0  0  0  0  0  0  0  0  0  0
   11.4401    8.4361   25.6169 H   0  0  0  0  0  0  0  0  0  0  0  0
    9.4156   10.6633   24.9515 H   0  0  0  0  0  0  0  0  0  0  0  0
   10.2787   10.9167   23.3967 H   0  0  0  0  0  0  0  0  0  0  0  0
    8.5867   10.3137   23.3967 H   0  0  0  0  0  0  0  0  0  0  0  0
    4.7231    3.6897   17.6530 H   0  0  0  0  0  0  0  0  0  0  0  0
    5.7451    4.9313   18.3934 H   0  0  0  0  0  0  0  0  0  0  0  0
    4.9758    1.6218   18.0632 H   0  0  0  0  0  0  0  0  0  0  0  0
    5.5735   -0.3782   17.0942 H   0  0  0  0  0  0  0  0  0  0  0  0
    8.4942    2.0193   19.3807 H   0  0  0  0  0  0  0  0  0  0  0  0
    7.4047   -2.0502   16.4800 H   0  0  0  0  0  0  0  0  0  0  0  0
   10.3277    0.3762   18.7605 H   0  0  0  0  0  0  0  0  0  0  0  0
  1 33  1  0  0  0  0
  2  1  2  0  0  0  0
  2 34  1  0  0  0  0
  3  2  1  0  0  0  0
  4  3  2  0  0  0  0
  5  4  1  0  0  0  0
  5 35  1  0  0  0  0
  6  5  2  0  0  0  0
  6  1  1  0  0  0  0
  6 36  1  0  0  0  0
  7  3  1  0  0  0  0
  8  7  1  0  0  0  0
  9  8  2  0  0  0  0
  9  4  1  0  0  0  0
  9 37  1  0  0  0  0
 10  8  1  0  0  0  0
 11 10  1  0  0  0  0
 11 38  1  0  0  0  0
 12 10  2  0  0  0  0
 13 11  1  0  0  0  0
 13 39  1  0  0  0  0
 14 13  1  0  0  0  0
 14 40  1  0  0  0  0
 14 41  1  0  0  0  0
 15 14  1  0  0  0  0
 15 42  1  0  0  0  0
 15 43  1  0  0  0  0
 16 15  1  0  0  0  0
 17 16  1  0  0  0  0
 17 44  1  0  0  0  0
 17 45  1  0  0  0  0
 18 13  1  0  0  0  0
 18 17  1  0  0  0  0
 18 46  1  0  0  0  0
 18 47  1  0  0  0  0
 19 16  1  0  0  0  0
 19 48  1  0  0  0  0
 20 19  1  0  0  0  0
 20 49  1  0  0  0  0
 20 50  1  0  0  0  0
 20 51  1  0  0  0  0
 21 19  1  0  0  0  0
 21 52  1  0  0  0  0
 21 53  1  0  0  0  0
 21 54  1  0  0  0  0
 22  7  1  0  0  0  0
 22 55  1  0  0  0  0
 22 56  1  0  0  0  0
 23 22  1  0  0  0  0
 24 23  1  0  0  0  0
 24 57  1  0  0  0  0
 25 24  1  0  0  0  0
 26 25  2  0  0  0  0
 26 58  1  0  0  0  0
 27 25  1  0  0  0  0
 27 59  1  0  0  0  0
 28 26  1  0  0  0  0
 28 60  1  0  0  0  0
 29 28  2  0  0  0  0
 30 29  1  0  0  0  0
 31 29  1  0  0  0  0
 31 27  2  0  0  0  0
 31 61  1  0  0  0  0
 32 23  2  0  0  0  0
M  END
$$$$
