BRY
  -OEChem-02242319233D

 30 33  0     0  0  0  0  0  0999 V2000
   -1.2160    0.0850   -3.0760 C   0  0  0  0  0  0  0  0  0  0  0  0
   -0.7890    0.1650   -1.6670 C   0  0  0  0  0  0  0  0  0  0  0  0
   -0.0590   -0.1110   -3.8450 C   0  0  0  0  0  0  0  0  0  0  0  0
    1.0500   -0.1530   -3.0140 N   0  0  0  0  0  0  0  0  0  0  0  0
   -0.1780   -0.2280   -5.2260 C   0  0  0  0  0  0  0  0  0  0  0  0
   -1.4180   -0.1500   -5.8250 C   0  0  0  0  0  0  0  0  0  0  0  0
   -2.5600    0.0440   -5.0640 C   0  0  0  0  0  0  0  0  0  0  0  0
   -2.4660    0.1620   -3.6930 C   0  0  0  0  0  0  0  0  0  0  0  0
    0.6830    0.0090   -1.6980 C   0  0  0  0  0  0  0  0  0  0  0  0
    1.5300    0.0190   -0.6090 C   0  0  0  0  0  0  0  0  0  0  0  0
    3.0100    0.0450   -0.6180 C   0  0  0  0  0  0  0  0  0  0  0  0
    3.4300    0.0470    0.6580 N   0  0  0  0  0  0  0  0  0  0  0  0
    2.3580    0.0230    1.5440 C   0  0  0  0  0  0  0  0  0  0  0  0
    1.1570    0.0050    0.8190 C   0  0  0  0  0  0  0  0  0  0  0  0
    2.3080    0.0170    2.9330 C   0  0  0  0  0  0  0  0  0  0  0  0
    1.0910   -0.0070    3.5840 C   0  0  0  0  0  0  0  0  0  0  0  0
   -0.0930   -0.0240    2.8650 C   0  0  0  0  0  0  0  0  0  0  0  0
   -0.0660   -0.0230    1.4850 C   0  0  0  0  0  0  0  0  0  0  0  0
    3.7200    0.0620   -1.6050 O   0  0  0  0  0  0  0  0  0  0  0  0
   -1.4940    0.3260   -0.6890 O   0  0  0  0  0  0  0  0  0  0  0  0
   -1.7500   -0.0580    3.7770 Br  0  0  0  0  0  0  0  0  0  0  0  0
    1.9620   -0.2800   -3.3200 H   0  0  0  0  0  0  0  0  0  0  0  0
    0.7030   -0.3790   -5.8320 H   0  0  0  0  0  0  0  0  0  0  0  0
   -1.5010   -0.2420   -6.8980 H   0  0  0  0  0  0  0  0  0  0  0  0
   -3.5250    0.1040   -5.5450 H   0  0  0  0  0  0  0  0  0  0  0  0
   -3.3550    0.3140   -3.1000 H   0  0  0  0  0  0  0  0  0  0  0  0
    4.3620    0.0620    0.9280 H   0  0  0  0  0  0  0  0  0  0  0  0
    3.2240    0.0300    3.5050 H   0  0  0  0  0  0  0  0  0  0  0  0
    1.0610   -0.0110    4.6640 H   0  0  0  0  0  0  0  0  0  0  0  0
   -0.9880   -0.0430    0.9240 H   0  0  0  0  0  0  0  0  0  0  0  0
  1  2  1  0  0  0  0
  1  3  2  0  0  0  0
  1  8  1  0  0  0  0
  2  9  1  0  0  0  0
  2 20  2  0  0  0  0
  3  4  1  0  0  0  0
  3  5  1  0  0  0  0
  4  9  1  0  0  0  0
  4 22  1  0  0  0  0
  5  6  2  0  0  0  0
  5 23  1  0  0  0  0
  6  7  1  0  0  0  0
  6 24  1  0  0  0  0
  7  8  2  0  0  0  0
  7 25  1  0  0  0  0
  8 26  1  0  0  0  0
  9 10  2  0  0  0  0
 10 11  1  0  0  0  0
 10 14  1  0  0  0  0
 11 12  1  0  0  0  0
 11 19  2  0  0  0  0
 12 13  1  0  0  0  0
 12 27  1  0  0  0  0
 13 14  2  0  0  0  0
 13 15  1  0  0  0  0
 14 18  1  0  0  0  0
 15 16  2  0  0  0  0
 15 28  1  0  0  0  0
 16 17  1  0  0  0  0
 16 29  1  0  0  0  0
 17 18  2  0  0  0  0
 17 21  1  0  0  0  0
 18 30  1  0  0  0  0
M  END
> <OPENEYE_ISO_SMILES>
c1ccc2c(c1)C(=O)/C(=C/3\c4cc(ccc4NC3=O)Br)/N2

> <OPENEYE_INCHI>
InChI=1S/C16H9BrN2O2/c17-8-5-6-12-10(7-8)13(16(21)19-12)14-15(20)9-3-1-2-4-11(9)18-14/h1-7,18H,(H,19,21)/b14-13-

> <OPENEYE_INCHIKEY>
IEQQJQHHJMQETK-YPKPFQOOSA-N

> <FORMULA>
C16H9BrN2O2

$$$$
