BRY
  Mrv15b2303062314032D          

 21 24  0  0  0  0            999 V2000
   -0.2783    1.4479    0.0000 C   0  0  0  0  0  0  0  0  0  0  0  0
    0.2066    0.7804    0.0000 C   0  0  0  0  0  0  0  0  0  0  0  0
   -1.0630    1.1929    0.0000 C   0  0  0  0  0  0  0  0  0  0  0  0
   -1.0630    0.3679    0.0000 N   0  0  0  0  0  0  0  0  0  0  0  0
   -1.6761    1.7450    0.0000 C   0  0  0  0  0  0  0  0  0  0  0  0
   -1.5045    2.5519    0.0000 C   0  0  0  0  0  0  0  0  0  0  0  0
   -0.7199    2.8069    0.0000 C   0  0  0  0  0  0  0  0  0  0  0  0
   -0.1068    2.2548    0.0000 C   0  0  0  0  0  0  0  0  0  0  0  0
   -0.2783    0.1130    0.0000 C   0  0  0  0  0  0  0  0  0  0  0  0
   -0.0234   -0.6716    0.0000 C   0  0  0  0  0  0  0  0  0  0  0  0
   -0.5083   -1.3391    0.0000 C   0  0  0  0  0  0  0  0  0  0  0  0
   -0.0234   -2.0065    0.0000 N   0  0  0  0  0  0  0  0  0  0  0  0
    0.7612   -1.7516    0.0000 C   0  0  0  0  0  0  0  0  0  0  0  0
    0.7612   -0.9266    0.0000 C   0  0  0  0  0  0  0  0  0  0  0  0
    1.4757   -2.1641    0.0000 C   0  0  0  0  0  0  0  0  0  0  0  0
    2.1902   -1.7516    0.0000 C   0  0  0  0  0  0  0  0  0  0  0  0
    2.1902   -0.9266    0.0000 C   0  0  0  0  0  0  0  0  0  0  0  0
    1.4757   -0.5141    0.0000 C   0  0  0  0  0  0  0  0  0  0  0  0
   -1.3333   -1.3391    0.0000 O   0  0  0  0  0  0  0  0  0  0  0  0
    1.0316    0.7804    0.0000 O   0  0  0  0  0  0  0  0  0  0  0  0
    2.9046   -0.5141    0.0000 Br  0  0  0  0  0  0  0  0  0  0  0  0
  1  2  1  0  0  0  0
  1  3  4  0  0  0  0
  1  8  4  0  0  0  0
  2  9  1  0  0  0  0
  2 20  2  0  0  0  0
  3  4  1  0  0  0  0
  3  5  4  0  0  0  0
  4  9  1  0  0  0  0
  5  6  4  0  0  0  0
  6  7  4  0  0  0  0
  7  8  4  0  0  0  0
  9 10  2  0  0  0  0
 10 11  1  0  0  0  0
 10 14  1  0  0  0  0
 11 12  1  0  0  0  0
 11 19  2  0  0  0  0
 12 13  1  0  0  0  0
 13 14  4  0  0  0  0
 13 15  4  0  0  0  0
 14 18  4  0  0  0  0
 15 16  4  0  0  0  0
 16 17  4  0  0  0  0
 17 18  4  0  0  0  0
 17 21  1  0  0  0  0
M  END
