XLC
 OpenBabel06072216003D

 57 60  0  0  0  0  0  0  0  0999 V2000
   13.8050    4.8170   16.0920 Cl  0  0  0  0  0  0  0  0  0  0  0  0
    9.8740    4.2170   16.7550 C   0  0  0  0  0  0  0  0  0  0  0  0
    9.4060    5.5640   17.0950 C   0  0  0  0  0  0  0  0  0  0  0  0
   10.3470    6.6310   17.1040 C   0  0  0  0  0  0  0  0  0  0  0  0
   11.7120    6.4040   16.7930 C   0  0  0  0  0  0  0  0  0  0  0  0
   12.1700    5.0960   16.4600 C   0  0  0  0  0  0  0  0  0  0  0  0
   11.2540    4.0240   16.4430 C   0  0  0  0  0  0  0  0  0  0  0  0
    8.0870    5.8000   17.4170 N   0  0  0  0  0  0  0  0  0  0  0  0
    7.1820    6.5270   16.6930 C   0  0  0  0  0  0  0  0  0  0  0  0
    7.5980    7.0670   15.6310 O   0  0  0  0  0  0  0  0  0  0  0  0
    5.8210    6.8060   17.1190 C   0  0  0  0  0  0  0  0  0  0  0  0
    5.1910    8.4280   16.8880 S   0  0  0  0  0  0  0  0  0  0  0  0
    3.7230    7.9810   17.6450 C   0  0  0  0  0  0  0  0  0  0  0  0
    3.6560    6.6670   18.0720 C   0  0  0  0  0  0  0  0  0  0  0  0
    4.8540    5.9830   17.7620 C   0  0  0  0  0  0  0  0  0  0  0  0
    5.0550    4.3720   18.1650 Cl  0  0  0  0  0  0  0  0  0  0  0  0
    2.4410    6.1410   18.7810 C   0  0  0  0  0  0  0  0  0  0  0  0
    2.3050    6.3520   20.2460 N   0  0  0  0  0  0  0  0  0  0  0  0
    0.9230    6.4870   20.7920 C   0  0  0  0  0  0  0  0  0  0  0  0
    0.9730    6.9630   22.2740 C   0  0  0  0  0  0  0  0  0  0  0  0
    1.8670    6.0760   23.0960 N   0  0  0  0  0  0  0  0  0  0  0  0
    3.2200    5.8920   22.5170 C   0  0  0  0  0  0  0  0  0  0  0  0
    1.9310    6.5120   24.5220 C   0  0  0  0  0  0  0  0  0  0  0  0
    3.1160    5.3950   21.0520 C   0  0  0  0  0  0  0  0  0  0  0  0
    9.0370    3.0610   16.7320 C   0  0  0  0  0  0  0  0  0  0  0  0
    8.4840    2.6560   15.5380 N   0  0  0  0  0  0  0  0  0  0  0  0
    8.8000    2.4220   17.8010 O   0  0  0  0  0  0  0  0  0  0  0  0
    7.6600    1.5930   15.3280 C   0  0  0  0  0  0  0  0  0  0  0  0
    6.3700    1.4770   15.9120 C   0  0  0  0  0  0  0  0  0  0  0  0
    5.5960    0.3460   15.6800 C   0  0  0  0  0  0  0  0  0  0  0  0
    6.0610   -0.6950   14.8560 C   0  0  0  0  0  0  0  0  0  0  0  0
    5.0810   -2.0730   14.6020 Cl  0  0  0  0  0  0  0  0  0  0  0  0
    7.3480   -0.5810   14.2600 C   0  0  0  0  0  0  0  0  0  0  0  0
    8.1340    0.5560   14.4920 C   0  0  0  0  0  0  0  0  0  0  0  0
   10.0107    7.6476   17.3560 H   0  0  0  0  0  0  0  0  0  0  0  0
   12.4225    7.2436   16.8089 H   0  0  0  0  0  0  0  0  0  0  0  0
   11.6106    3.0163   16.1835 H   0  0  0  0  0  0  0  0  0  0  0  0
    7.7464    5.3850   18.2960 H   0  0  0  0  0  0  0  0  0  0  0  0
    2.8917    8.6882   17.7823 H   0  0  0  0  0  0  0  0  0  0  0  0
    1.5654    6.6085   18.3069 H   0  0  0  0  0  0  0  0  0  0  0  0
    2.5344    5.0494   18.6828 H   0  0  0  0  0  0  0  0  0  0  0  0
    0.3661    7.2225   20.1929 H   0  0  0  0  0  0  0  0  0  0  0  0
    0.4225    5.5085   20.7465 H   0  0  0  0  0  0  0  0  0  0  0  0
    1.3584    7.9927   22.3081 H   0  0  0  0  0  0  0  0  0  0  0  0
   -0.0440    6.9177   22.6907 H   0  0  0  0  0  0  0  0  0  0  0  0
    3.7568    6.8519   22.5372 H   0  0  0  0  0  0  0  0  0  0  0  0
    3.7643    5.1430   23.1109 H   0  0  0  0  0  0  0  0  0  0  0  0
    1.8028    5.6388   25.1785 H   0  0  0  0  0  0  0  0  0  0  0  0
    2.9073    6.9788   24.7192 H   0  0  0  0  0  0  0  0  0  0  0  0
    1.1301    7.2397   24.7192 H   0  0  0  0  0  0  0  0  0  0  0  0
    2.6348    4.4060   21.0360 H   0  0  0  0  0  0  0  0  0  0  0  0
    4.1259    5.3251   20.6215 H   0  0  0  0  0  0  0  0  0  0  0  0
    8.7205    3.2212   14.7100 H   0  0  0  0  0  0  0  0  0  0  0  0
    5.9825    2.2850   16.5499 H   0  0  0  0  0  0  0  0  0  0  0  0
    4.6040    0.2637   16.1482 H   0  0  0  0  0  0  0  0  0  0  0  0
    7.7272   -1.3876   13.6153 H   0  0  0  0  0  0  0  0  0  0  0  0
    9.1245    0.6420   14.0214 H   0  0  0  0  0  0  0  0  0  0  0  0
  3  2  1  0  0  0  0
  4  3  2  0  0  0  0
  4 35  1  0  0  0  0
  5  4  1  0  0  0  0
  5 36  1  0  0  0  0
  6  1  1  0  0  0  0
  6  5  2  0  0  0  0
  7  2  2  0  0  0  0
  7  6  1  0  0  0  0
  7 37  1  0  0  0  0
  8  3  1  0  0  0  0
  8 38  1  0  0  0  0
  9  8  1  0  0  0  0
 10  9  2  0  0  0  0
 11  9  1  0  0  0  0
 12 11  1  0  0  0  0
 13 12  1  0  0  0  0
 13 39  1  0  0  0  0
 14 13  2  0  0  0  0
 15 14  1  0  0  0  0
 15 11  2  0  0  0  0
 16 15  1  0  0  0  0
 17 14  1  0  0  0  0
 17 40  1  0  0  0  0
 17 41  1  0  0  0  0
 18 17  1  0  0  0  0
 19 18  1  0  0  0  0
 19 42  1  0  0  0  0
 19 43  1  0  0  0  0
 20 19  1  0  0  0  0
 20 44  1  0  0  0  0
 20 45  1  0  0  0  0
 21 20  1  0  0  0  0
 22 21  1  0  0  0  0
 22 46  1  0  0  0  0
 22 47  1  0  0  0  0
 23 21  1  0  0  0  0
 23 48  1  0  0  0  0
 23 49  1  0  0  0  0
 23 50  1  0  0  0  0
 24 18  1  0  0  0  0
 24 22  1  0  0  0  0
 24 51  1  0  0  0  0
 24 52  1  0  0  0  0
 25  2  1  0  0  0  0
 26 25  1  0  0  0  0
 26 53  1  0  0  0  0
 27 25  2  0  0  0  0
 28 26  1  0  0  0  0
 29 28  2  0  0  0  0
 29 54  1  0  0  0  0
 30 29  1  0  0  0  0
 30 55  1  0  0  0  0
 31 30  2  0  0  0  0
 32 31  1  0  0  0  0
 33 31  1  0  0  0  0
 33 56  1  0  0  0  0
 34 33  2  0  0  0  0
 34 28  1  0  0  0  0
 34 57  1  0  0  0  0
M  END
$$$$
