@<TRIPOS>MOLECULE
XLC
 57 60 0 0 0
SMALL
GASTEIGER

@<TRIPOS>ATOM
      1 CL         13.8050    4.8170   16.0920 Cl      1  UNL1       -0.0835
      2 C           9.8740    4.2170   16.7550 C.ar    1  UNL1        0.0596
      3 C           9.4060    5.5640   17.0950 C.ar    1  UNL1        0.0459
      4 C          10.3470    6.6310   17.1040 C.ar    1  UNL1       -0.0384
      5 C          11.7120    6.4040   16.7930 C.ar    1  UNL1       -0.0416
      6 C          12.1700    5.0960   16.4600 C.ar    1  UNL1        0.0418
      7 C          11.2540    4.0240   16.4430 C.ar    1  UNL1       -0.0295
      8 N           8.0870    5.8000   17.4170 N.am    1  UNL1       -0.2804
      9 C           7.1820    6.5270   16.6930 C.2     1  UNL1        0.2563
     10 O           7.5980    7.0670   15.6310 O.2     1  UNL1       -0.2692
     11 C           5.8210    6.8060   17.1190 C.ar    1  UNL1        0.0928
     12 S           5.1910    8.4280   16.8880 S.2     1  UNL1       -0.0903
     13 C           3.7230    7.9810   17.6450 C.ar    1  UNL1       -0.0178
     14 C           3.6560    6.6670   18.0720 C.ar    1  UNL1       -0.0073
     15 C           4.8540    5.9830   17.7620 C.ar    1  UNL1        0.0646
     16 CL          5.0550    4.3720   18.1650 Cl      1  UNL1       -0.0819
     17 C           2.4410    6.1410   18.7810 C.3     1  UNL1        0.0260
     18 N           2.3050    6.3520   20.2460 N.3     1  UNL1       -0.2957
     19 C           0.9230    6.4870   20.7920 C.3     1  UNL1        0.0120
     20 C           0.9730    6.9630   22.2740 C.3     1  UNL1        0.0114
     21 N           1.8670    6.0760   23.0960 N.3     1  UNL1       -0.3029
     22 C           3.2200    5.8920   22.5170 C.3     1  UNL1        0.0114
     23 C           1.9310    6.5120   24.5220 C.3     1  UNL1       -0.0127
     24 C           3.1160    5.3950   21.0520 C.3     1  UNL1        0.0120
     25 C           9.0370    3.0610   16.7320 C.2     1  UNL1        0.2501
     26 N           8.4840    2.6560   15.5380 N.am    1  UNL1       -0.2815
     27 O           8.8000    2.4220   17.8010 O.2     1  UNL1       -0.2698
     28 C           7.6600    1.5930   15.3280 C.ar    1  UNL1        0.0338
     29 C           6.3700    1.4770   15.9120 C.ar    1  UNL1       -0.0391
     30 C           5.5960    0.3460   15.6800 C.ar    1  UNL1       -0.0416
     31 C           6.0610   -0.6950   14.8560 C.ar    1  UNL1        0.0411
     32 CL          5.0810   -2.0730   14.6020 Cl      1  UNL1       -0.0835
     33 C           7.3480   -0.5810   14.2600 C.ar    1  UNL1       -0.0416
     34 C           8.1340    0.5560   14.4920 C.ar    1  UNL1       -0.0391
     35 H          10.0107    7.6476   17.3560 H       1  UNL1        0.0637
     36 H          12.4225    7.2436   16.8089 H       1  UNL1        0.0633
     37 H          11.6106    3.0163   16.1835 H       1  UNL1        0.0640
     38 H           7.7464    5.3850   18.2960 H       1  UNL1        0.1552
     39 H           2.8917    8.6882   17.7823 H       1  UNL1        0.0697
     40 H           1.5654    6.6085   18.3069 H       1  UNL1        0.0476
     41 H           2.5344    5.0494   18.6828 H       1  UNL1        0.0476
     42 H           0.3661    7.2225   20.1929 H       1  UNL1        0.0439
     43 H           0.4225    5.5085   20.7465 H       1  UNL1        0.0439
     44 H           1.3584    7.9927   22.3081 H       1  UNL1        0.0439
     45 H          -0.0440    6.9177   22.6907 H       1  UNL1        0.0439
     46 H           3.7568    6.8519   22.5372 H       1  UNL1        0.0439
     47 H           3.7643    5.1430   23.1109 H       1  UNL1        0.0439
     48 H           1.8028    5.6388   25.1785 H       1  UNL1        0.0391
     49 H           2.9073    6.9788   24.7192 H       1  UNL1        0.0391
     50 H           1.1301    7.2397   24.7192 H       1  UNL1        0.0391
     51 H           2.6348    4.4060   21.0360 H       1  UNL1        0.0439
     52 H           4.1259    5.3251   20.6215 H       1  UNL1        0.0439
     53 H           8.7205    3.2212   14.7100 H       1  UNL1        0.1551
     54 H           5.9825    2.2850   16.5499 H       1  UNL1        0.0636
     55 H           4.6040    0.2637   16.1482 H       1  UNL1        0.0633
     56 H           7.7272   -1.3876   13.6153 H       1  UNL1        0.0633
     57 H           9.1245    0.6420   14.0214 H       1  UNL1        0.0636
@<TRIPOS>BOND
     1     3     2   ar
     2     4     3   ar
     3     5     4   ar
     4     6     1    1
     5     6     5   ar
     6     7     2   ar
     7     7     6   ar
     8     8     3    1
     9     9     8   am
    10    10     9    2
    11    11     9    1
    12    12    11   ar
    13    13    12   ar
    14    14    13   ar
    15    15    14   ar
    16    15    11   ar
    17    16    15    1
    18    17    14    1
    19    18    17    1
    20    19    18    1
    21    20    19    1
    22    21    20    1
    23    22    21    1
    24    23    21    1
    25    24    18    1
    26    24    22    1
    27    25     2    1
    28    26    25   am
    29    27    25    2
    30    28    26    1
    31    29    28   ar
    32    30    29   ar
    33    31    30   ar
    34    32    31    1
    35    33    31   ar
    36    34    33   ar
    37    34    28   ar
    38     4    35    1
    39     5    36    1
    40     7    37    1
    41     8    38    1
    42    13    39    1
    43    17    40    1
    44    17    41    1
    45    19    42    1
    46    19    43    1
    47    20    44    1
    48    20    45    1
    49    22    46    1
    50    22    47    1
    51    23    48    1
    52    23    49    1
    53    23    50    1
    54    24    51    1
    55    24    52    1
    56    26    53    1
    57    29    54    1
    58    30    55    1
    59    33    56    1
    60    34    57    1
