0F5
 OpenBabel10052215513D

 49 52  0  0  0  0  0  0  0  0999 V2000
  170.6110 -122.9450    3.8420 C   0  0  0  0  0  0  0  0  0  0  0  0
  170.0430 -121.5820    2.0260 N   0  0  0  0  0  0  0  0  0  0  0  0
  170.1820 -122.8440    2.5100 C   0  0  0  0  0  0  0  0  0  0  0  0
  170.3080 -120.4820    2.7790 C   0  0  0  0  0  0  0  0  0  0  0  0
  170.9060 -121.8420    4.5940 N   0  0  0  0  0  0  0  0  0  0  0  0
  170.7560 -120.5250    4.1040 C   0  0  0  0  0  0  0  0  0  0  0  0
  170.1500 -119.3100    2.2290 N   0  0  0  0  0  0  0  0  0  0  0  0
  169.8660 -123.9740    1.6760 C   0  0  0  0  0  0  0  0  0  0  0  0
  169.7600 -123.8910    0.2910 C   0  0  0  0  0  0  0  0  0  0  0  0
  169.3660 -125.0000   -0.5010 C   0  0  0  0  0  0  0  0  0  0  0  0
  169.0590 -126.2420    0.0730 C   0  0  0  0  0  0  0  0  0  0  0  0
  169.1310 -126.3310    1.4960 C   0  0  0  0  0  0  0  0  0  0  0  0
  169.5220 -125.2450    2.2660 C   0  0  0  0  0  0  0  0  0  0  0  0
  168.7590 -127.6030    2.1180 C   0  0  0  0  0  0  0  0  0  0  0  0
  167.4570 -128.1420    2.0740 C   0  0  0  0  0  0  0  0  0  0  0  0
  167.1380 -129.1340    1.1320 C   0  0  0  0  0  0  0  0  0  0  0  0
  165.8640 -129.6030    1.0550 N   0  0  0  0  0  0  0  0  0  0  0  0
  167.9810 -129.6080    0.3420 O   0  0  0  0  0  0  0  0  0  0  0  0
  165.1140 -128.9690    1.9820 C   0  0  0  0  0  0  0  0  0  0  0  0
  166.0210 -127.7180    2.8950 S   0  0  0  0  0  0  0  0  0  0  0  0
  163.9170 -129.1430    2.1610 O   0  0  0  0  0  0  0  0  0  0  0  0
  169.6870 -119.1700    0.8510 C   0  0  1  0  0  0  0  0  0  0  0  0
  168.1710 -119.4400    0.7740 C   0  0  0  0  0  0  0  0  0  0  0  0
  167.7610 -119.0750   -0.6850 C   0  0  0  0  0  0  0  0  0  0  0  0
  168.1740 -117.6200   -1.0980 C   0  0  1  0  0  0  0  0  0  0  0  0
  169.6160 -117.6220   -1.0100 C   0  0  0  0  0  0  0  0  0  0  0  0
  167.8230 -117.2730   -2.4900 N   0  0  0  0  0  0  0  0  0  0  0  0
  169.9490 -117.6950    0.4900 C   0  0  0  0  0  0  0  0  0  0  0  0
  170.7131 -123.9421    4.2951 H   0  0  0  0  0  0  0  0  0  0  0  0
  170.9693 -119.6268    4.7021 H   0  0  0  0  0  0  0  0  0  0  0  0
  170.3565 -118.4640    2.7790 H   0  0  0  0  0  0  0  0  0  0  0  0
  169.9887 -122.9361   -0.2049 H   0  0  0  0  0  0  0  0  0  0  0  0
  169.2997 -124.8827   -1.5927 H   0  0  0  0  0  0  0  0  0  0  0  0
  168.7759 -127.1073   -0.5443 H   0  0  0  0  0  0  0  0  0  0  0  0
  169.5712 -125.3564    3.3592 H   0  0  0  0  0  0  0  0  0  0  0  0
  169.5383 -128.1694    2.6489 H   0  0  0  0  0  0  0  0  0  0  0  0
  165.5271 -130.3220    0.3989 H   0  0  0  0  0  0  0  0  0  0  0  0
  170.1956 -119.8733    0.1752 H   0  0  0  0  0  0  0  0  0  0  0  0
  167.9574 -120.4991    0.9806 H   0  0  0  0  0  0  0  0  0  0  0  0
  167.6117 -118.8515    1.5162 H   0  0  0  0  0  0  0  0  0  0  0  0
  168.2459 -119.7842   -1.3720 H   0  0  0  0  0  0  0  0  0  0  0  0
  166.6638 -119.1308   -0.7394 H   0  0  0  0  0  0  0  0  0  0  0  0
  167.6554 -116.8954   -0.4530 H   0  0  0  0  0  0  0  0  0  0  0  0
  170.0299 -118.4948   -1.5363 H   0  0  0  0  0  0  0  0  0  0  0  0
  170.0494 -116.7246   -1.4758 H   0  0  0  0  0  0  0  0  0  0  0  0
  167.0905 -116.5489   -2.4891 H   0  0  0  0  0  0  0  0  0  0  0  0
  168.6581 -116.9160   -2.9759 H   0  0  0  0  0  0  0  0  0  0  0  0
  171.0003 -117.4274    0.6719 H   0  0  0  0  0  0  0  0  0  0  0  0
  169.3518 -116.9958    1.0937 H   0  0  0  0  0  0  0  0  0  0  0  0
  1 29  1  0  0  0  0
  3  2  1  0  0  0  0
  3  1  2  0  0  0  0
  4  2  2  0  0  0  0
  5  1  1  0  0  0  0
  6  5  2  0  0  0  0
  6  4  1  0  0  0  0
  6 30  1  0  0  0  0
  7  4  1  0  0  0  0
  7 31  1  0  0  0  0
  8  3  1  0  0  0  0
  9  8  2  0  0  0  0
  9 32  1  0  0  0  0
 10  9  1  0  0  0  0
 10 33  1  0  0  0  0
 11 10  2  0  0  0  0
 11 34  1  0  0  0  0
 12 11  1  0  0  0  0
 13 12  2  0  0  0  0
 13  8  1  0  0  0  0
 13 35  1  0  0  0  0
 14 12  1  0  0  0  0
 14 36  1  0  0  0  0
 15 14  2  3  0  0  0
 16 15  1  0  0  0  0
 17 16  1  0  0  0  0
 17 37  1  0  0  0  0
 18 16  2  0  0  0  0
 19 17  1  0  0  0  0
 20 19  1  0  0  0  0
 20 15  1  0  0  0  0
 21 19  2  0  0  0  0
 22  7  1  0  0  0  0
 22 38  1  6  0  0  0
 23 22  1  0  0  0  0
 23 39  1  0  0  0  0
 23 40  1  0  0  0  0
 24 23  1  0  0  0  0
 24 41  1  0  0  0  0
 24 42  1  0  0  0  0
 25 24  1  0  0  0  0
 25 43  1  1  0  0  0
 26 25  1  0  0  0  0
 26 44  1  0  0  0  0
 26 45  1  0  0  0  0
 27 25  1  0  0  0  0
 27 46  1  0  0  0  0
 27 47  1  0  0  0  0
 28 26  1  0  0  0  0
 28 22  1  0  0  0  0
 28 48  1  0  0  0  0
 28 49  1  0  0  0  0
M  END
$$$$
