@<TRIPOS>MOLECULE
0F5
 49 52 0 0 0
SMALL
GASTEIGER

@<TRIPOS>ATOM
      1 C         170.6110 -122.9450    3.8420 C.ar    1  UNL1        0.0537
      2 N         170.0430 -121.5820    2.0260 N.ar    1  UNL1       -0.2292
      3 C         170.1820 -122.8440    2.5100 C.ar    1  UNL1        0.0911
      4 C         170.3080 -120.4820    2.7790 C.ar    1  UNL1        0.1379
      5 N         170.9060 -121.8420    4.5940 N.ar    1  UNL1       -0.2577
      6 C         170.7560 -120.5250    4.1040 C.ar    1  UNL1        0.0673
      7 N         170.1500 -119.3100    2.2290 N.pl3   1  UNL1       -0.3250
      8 C         169.8660 -123.9740    1.6760 C.ar    1  UNL1        0.0025
      9 C         169.7600 -123.8910    0.2910 C.ar    1  UNL1       -0.0525
     10 C         169.3660 -125.0000   -0.5010 C.ar    1  UNL1       -0.0606
     11 C         169.0590 -126.2420    0.0730 C.ar    1  UNL1       -0.0545
     12 C         169.1310 -126.3310    1.4960 C.ar    1  UNL1       -0.0232
     13 C         169.5220 -125.2450    2.2660 C.ar    1  UNL1       -0.0453
     14 C         168.7590 -127.6030    2.1180 C.2     1  UNL1       -0.0356
     15 C         167.4570 -128.1420    2.0740 C.2     1  UNL1        0.0795
     16 C         167.1380 -129.1340    1.1320 C.2     1  UNL1        0.2577
     17 N         165.8640 -129.6030    1.0550 N.am    1  UNL1       -0.2425
     18 O         167.9810 -129.6080    0.3420 O.2     1  UNL1       -0.2692
     19 C         165.1140 -128.9690    1.9820 C.2     1  UNL1        0.2832
     20 S         166.0210 -127.7180    2.8950 S.3     1  UNL1       -0.0260
     21 O         163.9170 -129.1430    2.1610 O.2     1  UNL1       -0.2622
     22 C         169.6870 -119.1700    0.8510 C.3     1  UNL1        0.0221
     23 C         168.1710 -119.4400    0.7740 C.3     1  UNL1       -0.0331
     24 C         167.7610 -119.0750   -0.6850 C.3     1  UNL1       -0.0361
     25 C         168.1740 -117.6200   -1.0980 C.3     1  UNL1        0.0050
     26 C         169.6160 -117.6220   -1.0100 C.3     1  UNL1       -0.0361
     27 N         167.8230 -117.2730   -2.4900 N.3     1  UNL1       -0.3272
     28 C         169.9490 -117.6950    0.4900 C.3     1  UNL1       -0.0331
     29 H         170.7131 -123.9421    4.2951 H       1  UNL1        0.0851
     30 H         170.9693 -119.6268    4.7021 H       1  UNL1        0.0864
     31 H         170.3565 -118.4640    2.7790 H       1  UNL1        0.1478
     32 H         169.9887 -122.9361   -0.2049 H       1  UNL1        0.0624
     33 H         169.2997 -124.8827   -1.5927 H       1  UNL1        0.0618
     34 H         168.7759 -127.1073   -0.5443 H       1  UNL1        0.0623
     35 H         169.5712 -125.3564    3.3592 H       1  UNL1        0.0630
     36 H         169.5383 -128.1694    2.6489 H       1  UNL1        0.0636
     37 H         165.5271 -130.3220    0.3989 H       1  UNL1        0.1587
     38 H         170.1956 -119.8733    0.1752 H       1  UNL1        0.0498
     39 H         167.9574 -120.4991    0.9806 H       1  UNL1        0.0284
     40 H         167.6117 -118.8515    1.5162 H       1  UNL1        0.0284
     41 H         168.2459 -119.7842   -1.3720 H       1  UNL1        0.0281
     42 H         166.6638 -119.1308   -0.7394 H       1  UNL1        0.0281
     43 H         167.6554 -116.8954   -0.4530 H       1  UNL1        0.0458
     44 H         170.0299 -118.4948   -1.5363 H       1  UNL1        0.0281
     45 H         170.0494 -116.7246   -1.4758 H       1  UNL1        0.0281
     46 H         167.0905 -116.5489   -2.4891 H       1  UNL1        0.1185
     47 H         168.6581 -116.9160   -2.9759 H       1  UNL1        0.1185
     48 H         171.0003 -117.4274    0.6719 H       1  UNL1        0.0284
     49 H         169.3518 -116.9958    1.0937 H       1  UNL1        0.0284
@<TRIPOS>BOND
     1     3     2   ar
     2     3     1   ar
     3     4     2   ar
     4     5     1   ar
     5     6     5   ar
     6     6     4   ar
     7     7     4    1
     8     8     3    1
     9     9     8   ar
    10    10     9   ar
    11    11    10   ar
    12    12    11   ar
    13    13    12   ar
    14    13     8   ar
    15    14    12    1
    16    15    14    2
    17    16    15    1
    18    17    16   am
    19    18    16    2
    20    19    17   am
    21    20    19    1
    22    20    15    1
    23    21    19    2
    24    22     7    1
    25    23    22    1
    26    24    23    1
    27    25    24    1
    28    26    25    1
    29    27    25    1
    30    28    26    1
    31    28    22    1
    32     1    29    1
    33     6    30    1
    34     7    31    1
    35     9    32    1
    36    10    33    1
    37    11    34    1
    38    13    35    1
    39    14    36    1
    40    17    37    1
    41    22    38    1
    42    23    39    1
    43    23    40    1
    44    24    41    1
    45    24    42    1
    46    25    43    1
    47    26    44    1
    48    26    45    1
    49    27    46    1
    50    27    47    1
    51    28    48    1
    52    28    49    1
