393
  -OEChem-02242319213D

 38 39  0     0  0  0  0  0  0999 V2000
    6.0210   -2.5460   -4.7410 C   0  0  0  0  0  0  0  0  0  0  0  0
    7.0310   -3.5370   -4.8600 N   0  3  0  0  0  0  0  0  0  0  0  0
    8.1640   -3.2030   -5.2820 O   0  5  0  0  0  0  0  0  0  0  0  0
    6.7630   -4.7210   -4.5380 O   0  0  0  0  0  0  0  0  0  0  0  0
    4.7530   -2.8940   -4.2740 C   0  0  0  0  0  0  0  0  0  0  0  0
    3.7710   -1.9170   -4.1610 C   0  0  0  0  0  0  0  0  0  0  0  0
    2.4060   -2.2910   -3.6590 C   0  0  0  0  0  0  0  0  0  0  0  0
    2.3080   -2.1740   -2.2220 N   0  0  0  0  0  0  0  0  0  0  0  0
    1.9100   -1.0030   -1.5680 C   0  0  0  0  0  0  0  0  0  0  0  0
    1.8850   -1.0360   -0.1120 C   0  0  0  0  0  0  0  0  0  0  0  0
    0.9670   -0.2370    0.5690 C   0  0  0  0  0  0  0  0  0  0  0  0
    0.9270   -0.2550    1.9630 C   0  0  0  0  0  0  0  0  0  0  0  0
    1.8060   -1.0710    2.6760 C   0  0  0  0  0  0  0  0  0  0  0  0
    1.7560   -1.0920    4.3960 Cl  0  0  0  0  0  0  0  0  0  0  0  0
    2.7240   -1.8700    1.9950 C   0  0  0  0  0  0  0  0  0  0  0  0
    2.7630   -1.8530    0.6000 C   0  0  0  0  0  0  0  0  0  0  0  0
    3.6680   -2.6400   -0.0470 O   0  0  0  0  0  0  0  0  0  0  0  0
    5.0470   -2.4090    0.2350 C   0  0  0  0  0  0  0  0  0  0  0  0
    5.8960   -3.3490   -0.5740 C   0  0  0  0  0  0  0  0  0  0  0  0
    7.2110   -3.1160   -0.3350 O   0  0  0  0  0  0  0  0  0  0  0  0
    5.4830   -4.2060   -1.3410 O   0  0  0  0  0  0  0  0  0  0  0  0
    1.6080    0.0360   -2.1790 O   0  0  0  0  0  0  0  0  0  0  0  0
    4.0370   -0.5980   -4.5090 C   0  0  0  0  0  0  0  0  0  0  0  0
    5.3050   -0.2510   -4.9760 C   0  0  0  0  0  0  0  0  0  0  0  0
    6.2970   -1.2250   -5.0920 C   0  0  0  0  0  0  0  0  0  0  0  0
    4.5330   -3.9240   -3.9990 H   0  0  0  0  0  0  0  0  0  0  0  0
    1.6410   -1.6450   -4.1030 H   0  0  0  0  0  0  0  0  0  0  0  0
    2.1570   -3.3230   -3.9290 H   0  0  0  0  0  0  0  0  0  0  0  0
    2.6040   -2.9740   -1.6720 H   0  0  0  0  0  0  0  0  0  0  0  0
    0.2780    0.4030    0.0240 H   0  0  0  0  0  0  0  0  0  0  0  0
    0.2060    0.3730    2.4810 H   0  0  0  0  0  0  0  0  0  0  0  0
    3.4120   -2.5080    2.5430 H   0  0  0  0  0  0  0  0  0  0  0  0
    5.2850   -1.3780   -0.0400 H   0  0  0  0  0  0  0  0  0  0  0  0
    5.2230   -2.5660    1.3020 H   0  0  0  0  0  0  0  0  0  0  0  0
    7.7900   -3.7170   -0.8520 H   0  0  0  0  0  0  0  0  0  0  0  0
    3.2710    0.1670   -4.4210 H   0  0  0  0  0  0  0  0  0  0  0  0
    5.5210    0.7780   -5.2480 H   0  0  0  0  0  0  0  0  0  0  0  0
    7.2800   -0.9410   -5.4580 H   0  0  0  0  0  0  0  0  0  0  0  0
  1  2  1  0  0  0  0
  1 25  2  0  0  0  0
  1  5  1  0  0  0  0
  2  3  1  0  0  0  0
  2  4  2  0  0  0  0
  5  6  2  0  0  0  0
  5 26  1  0  0  0  0
  6 23  1  0  0  0  0
  6  7  1  0  0  0  0
  7  8  1  0  0  0  0
  7 27  1  0  0  0  0
  7 28  1  0  0  0  0
  8  9  1  0  0  0  0
  8 29  1  0  0  0  0
  9 22  2  0  0  0  0
  9 10  1  0  0  0  0
 10 11  2  0  0  0  0
 10 16  1  0  0  0  0
 11 12  1  0  0  0  0
 11 30  1  0  0  0  0
 12 13  2  0  0  0  0
 12 31  1  0  0  0  0
 13 15  1  0  0  0  0
 13 14  1  0  0  0  0
 15 16  2  0  0  0  0
 15 32  1  0  0  0  0
 16 17  1  0  0  0  0
 17 18  1  0  0  0  0
 18 19  1  0  0  0  0
 18 33  1  0  0  0  0
 18 34  1  0  0  0  0
 19 21  2  0  0  0  0
 19 20  1  0  0  0  0
 20 35  1  0  0  0  0
 23 24  2  0  0  0  0
 23 36  1  0  0  0  0
 24 25  1  0  0  0  0
 24 37  1  0  0  0  0
 25 38  1  0  0  0  0
M  CHG  2   2   1   3  -1
M  END
> <OPENEYE_ISO_SMILES>
c1cc(cc(c1)[N+](=O)[O-])CNC(=O)c2ccc(cc2OCC(=O)O)Cl

> <OPENEYE_INCHI>
InChI=1S/C16H13ClN2O6/c17-11-4-5-13(14(7-11)25-9-15(20)21)16(22)18-8-10-2-1-3-12(6-10)19(23)24/h1-7H,8-9H2,(H,18,22)(H,20,21)

> <OPENEYE_INCHIKEY>
VABIMMIJVWNHFI-UHFFFAOYSA-N

> <FORMULA>
C16H13ClN2O6

$$$$
