@<TRIPOS>MOLECULE
393
 38 39 0 0 0
SMALL
GASTEIGER

@<TRIPOS>ATOM
      1 C           6.0210   -2.5460   -4.7410 C.ar    1  LIG1        0.2735
      2 N           7.0310   -3.5370   -4.8600 N.pl3   1  LIG1        0.0796
      3 O           8.1640   -3.2030   -5.2820 O.co2   1  LIG1       -0.5760
      4 O           6.7630   -4.7210   -4.5380 O.2     1  LIG1        0.0414
      5 C           4.7530   -2.8940   -4.2740 C.ar    1  LIG1        0.0202
      6 C           3.7710   -1.9170   -4.1610 C.ar    1  LIG1       -0.0239
      7 C           2.4060   -2.2910   -3.6590 C.3     1  LIG1        0.0374
      8 N           2.3080   -2.1740   -2.2220 N.am    1  LIG1       -0.3071
      9 C           1.9100   -1.0030   -1.5680 C.2     1  LIG1        0.2479
     10 C           1.8850   -1.0360   -0.1120 C.ar    1  LIG1        0.0784
     11 C           0.9670   -0.2370    0.5690 C.ar    1  LIG1       -0.0447
     12 C           0.9270   -0.2550    1.9630 C.ar    1  LIG1       -0.0424
     13 C           1.8060   -1.0710    2.6760 C.ar    1  LIG1        0.0445
     14 CL          1.7560   -1.0920    4.3960 Cl      1  LIG1       -0.0834
     15 C           2.7240   -1.8700    1.9950 C.ar    1  LIG1       -0.0008
     16 C           2.7630   -1.8530    0.6000 C.ar    1  LIG1        0.1348
     17 O           3.6680   -2.6400   -0.0470 O.3     1  LIG1       -0.4800
     18 C           5.0470   -2.4090    0.2350 C.3     1  LIG1        0.1857
     19 C           5.8960   -3.3490   -0.5740 C.2     1  LIG1        0.3427
     20 O           7.2110   -3.1160   -0.3350 O.3     1  LIG1       -0.4783
     21 O           5.4830   -4.2060   -1.3410 O.2     1  LIG1       -0.2472
     22 O           1.6080    0.0360   -2.1790 O.2     1  LIG1       -0.2701
     23 C           4.0370   -0.5980   -4.5090 C.ar    1  LIG1       -0.0567
     24 C           5.3050   -0.2510   -4.9760 C.ar    1  LIG1       -0.0550
     25 C           6.2970   -1.2250   -5.0920 C.ar    1  LIG1        0.0156
     26 H           4.5330   -3.9240   -3.9990 H       1  LIG1        0.0688
     27 H           1.6410   -1.6450   -4.1030 H       1  LIG1        0.0512
     28 H           2.1570   -3.3230   -3.9290 H       1  LIG1        0.0512
     29 H           2.6040   -2.9740   -1.6720 H       1  LIG1        0.1493
     30 H           0.2780    0.4030    0.0240 H       1  LIG1        0.0627
     31 H           0.2060    0.3730    2.4810 H       1  LIG1        0.0632
     32 H           3.4120   -2.5080    2.5430 H       1  LIG1        0.0669
     33 H           5.2850   -1.3780   -0.0400 H       1  LIG1        0.0815
     34 H           5.2230   -2.5660    1.3020 H       1  LIG1        0.0815
     35 H           7.7900   -3.7170   -0.8520 H       1  LIG1        0.2952
     36 H           3.2710    0.1670   -4.4210 H       1  LIG1        0.0621
     37 H           5.5210    0.7780   -5.2480 H       1  LIG1        0.0620
     38 H           7.2800   -0.9410   -5.4580 H       1  LIG1        0.0685
@<TRIPOS>BOND
     1     1     2    1
     2     1    25   ar
     3     1     5   ar
     4     2     3    1
     5     2     4    2
     6     5     6   ar
     7     5    26    1
     8     6    23   ar
     9     6     7    1
    10     7     8    1
    11     7    27    1
    12     7    28    1
    13     8     9   am
    14     8    29    1
    15     9    22    2
    16     9    10    1
    17    10    11   ar
    18    10    16   ar
    19    11    12   ar
    20    11    30    1
    21    12    13   ar
    22    12    31    1
    23    13    15   ar
    24    13    14    1
    25    15    16   ar
    26    15    32    1
    27    16    17    1
    28    17    18    1
    29    18    19    1
    30    18    33    1
    31    18    34    1
    32    19    21    2
    33    19    20    1
    34    20    35    1
    35    23    24   ar
    36    23    36    1
    37    24    25   ar
    38    24    37    1
    39    25    38    1
