393
  Mrv15b2303062314182D          

 25 26  0  0  0  0            999 V2000
    4.0113    1.4647    0.0000 C   0  0  0  0  0  0  0  0  0  0  0  0
    4.0113    2.2897    0.0000 N   0  0  0  0  0  0  0  0  0  0  0  0
    4.7258    2.7022    0.0000 O   0  5  0  0  0  0  0  0  0  0  0  0
    3.2969    2.7022    0.0000 O   0  0  0  0  0  0  0  0  0  0  0  0
    3.2969    1.0522    0.0000 C   0  0  0  0  0  0  0  0  0  0  0  0
    3.2969    0.2272    0.0000 C   0  0  0  0  0  0  0  0  0  0  0  0
    2.5824   -0.1853    0.0000 C   0  0  0  0  0  0  0  0  0  0  0  0
    2.5824   -1.0103    0.0000 N   0  0  0  0  0  0  0  0  0  0  0  0
    1.8679   -1.4228    0.0000 C   0  0  0  0  0  0  0  0  0  0  0  0
    1.8679   -2.2478    0.0000 C   0  0  0  0  0  0  0  0  0  0  0  0
    2.5824   -2.6603    0.0000 C   0  0  0  0  0  0  0  0  0  0  0  0
    2.5824   -3.4853    0.0000 C   0  0  0  0  0  0  0  0  0  0  0  0
    1.8679   -3.8978    0.0000 C   0  0  0  0  0  0  0  0  0  0  0  0
    1.8679   -4.7228    0.0000 Cl  0  0  0  0  0  0  0  0  0  0  0  0
    1.1535   -3.4853    0.0000 C   0  0  0  0  0  0  0  0  0  0  0  0
    1.1535   -2.6603    0.0000 C   0  0  0  0  0  0  0  0  0  0  0  0
    0.4390   -2.2478    0.0000 O   0  0  0  0  0  0  0  0  0  0  0  0
   -0.2755   -2.6603    0.0000 C   0  0  0  0  0  0  0  0  0  0  0  0
   -0.9900   -2.2478    0.0000 C   0  0  0  0  0  0  0  0  0  0  0  0
   -1.7044   -2.6603    0.0000 O   0  0  0  0  0  0  0  0  0  0  0  0
   -0.9900   -1.4228    0.0000 O   0  0  0  0  0  0  0  0  0  0  0  0
    1.1535   -1.0103    0.0000 O   0  0  0  0  0  0  0  0  0  0  0  0
    4.0113   -0.1853    0.0000 C   0  0  0  0  0  0  0  0  0  0  0  0
    4.7258    0.2272    0.0000 C   0  0  0  0  0  0  0  0  0  0  0  0
    4.7258    1.0522    0.0000 C   0  0  0  0  0  0  0  0  0  0  0  0
  1  2  1  0  0  0  0
  1 25  4  0  0  0  0
  1  5  4  0  0  0  0
  2  3  1  0  0  0  0
  2  4  2  0  0  0  0
  5  6  4  0  0  0  0
  6 23  4  0  0  0  0
  6  7  1  0  0  0  0
  7  8  1  0  0  0  0
  8  9  1  0  0  0  0
  9 22  2  0  0  0  0
  9 10  1  0  0  0  0
 10 11  4  0  0  0  0
 10 16  4  0  0  0  0
 11 12  4  0  0  0  0
 12 13  4  0  0  0  0
 13 15  4  0  0  0  0
 13 14  1  0  0  0  0
 15 16  4  0  0  0  0
 16 17  1  0  0  0  0
 17 18  1  0  0  0  0
 18 19  1  0  0  0  0
 19 21  2  0  0  0  0
 19 20  1  0  0  0  0
 23 24  4  0  0  0  0
 24 25  4  0  0  0  0
M  CHG  1   3  -1
M  END
