979
 OpenBabel09202212173D

 55 59  0  0  0  0  0  0  0  0999 V2000
   19.9110   36.7740   86.3700 C   0  0  0  0  0  0  0  0  0  0  0  0
   20.9140   36.1270   85.7770 N   0  0  0  0  0  0  0  0  0  0  0  0
   22.0480   36.7860   85.3480 C   0  0  0  0  0  0  0  0  0  0  0  0
   22.2310   38.1650   85.5580 C   0  0  0  0  0  0  0  0  0  0  0  0
   21.1180   38.8070   86.2310 C   0  0  0  0  0  0  0  0  0  0  0  0
   20.0380   38.0910   86.6040 N   0  0  0  0  0  0  0  0  0  0  0  0
   23.1310   36.2330   84.7410 O   0  0  0  0  0  0  0  0  0  0  0  0
   24.0200   37.2550   84.5070 C   0  0  0  0  0  0  0  0  0  0  0  0
   23.4770   38.5740   85.0600 C   0  0  0  0  0  0  0  0  0  0  0  0
   21.0600   40.1360   86.5500 N   0  0  0  0  0  0  0  0  0  0  0  0
   21.6460   40.5990   87.7950 C   0  0  0  0  0  0  0  0  0  0  0  0
   22.2090   42.0160   87.6180 C   0  0  0  0  0  0  0  0  0  0  0  0
   22.2870   42.8360   88.8750 N   0  0  0  0  0  0  0  0  0  0  0  0
   22.9580   42.0340   89.9750 C   0  0  0  0  0  0  0  0  0  0  0  0
   24.5260   41.9330   89.7280 C   0  0  0  0  0  0  0  0  0  0  0  0
   25.1520   43.2810   89.6680 N   0  0  0  0  0  0  0  0  0  0  0  0
   24.5230   44.1740   88.6430 C   0  0  0  0  0  0  0  0  0  0  0  0
   22.9590   44.1970   88.6540 C   0  0  0  0  0  0  0  0  0  0  0  0
   24.0750   39.9610   85.0390 C   0  0  0  0  0  0  0  0  0  0  0  0
   25.0390   40.3540   86.0520 C   0  0  0  0  0  0  0  0  0  0  0  0
   25.5460   41.6910   86.0660 C   0  0  0  0  0  0  0  0  0  0  0  0
   25.0760   42.6340   85.0770 C   0  0  0  0  0  0  0  0  0  0  0  0
   24.1280   42.2470   84.0550 C   0  0  0  0  0  0  0  0  0  0  0  0
   23.6190   40.9180   84.0490 C   0  0  0  0  0  0  0  0  0  0  0  0
   25.3440   36.9880   83.8450 C   0  0  0  0  0  0  0  0  0  0  0  0
   25.4140   35.9760   82.8030 C   0  0  0  0  0  0  0  0  0  0  0  0
   26.6670   35.7200   82.1570 C   0  0  0  0  0  0  0  0  0  0  0  0
   27.8480   36.4750   82.5420 C   0  0  0  0  0  0  0  0  0  0  0  0
   27.7960   37.4720   83.5630 C   0  0  0  0  0  0  0  0  0  0  0  0
   26.5460   37.7250   84.2060 C   0  0  0  0  0  0  0  0  0  0  0  0
   18.9954   36.2393   86.6627 H   0  0  0  0  0  0  0  0  0  0  0  0
   20.6039   40.8033   85.9116 H   0  0  0  0  0  0  0  0  0  0  0  0
   20.8742   40.6094   88.5787 H   0  0  0  0  0  0  0  0  0  0  0  0
   22.4625   39.9205   88.0829 H   0  0  0  0  0  0  0  0  0  0  0  0
   23.2248   41.9293   87.2049 H   0  0  0  0  0  0  0  0  0  0  0  0
   21.5075   42.5421   86.9538 H   0  0  0  0  0  0  0  0  0  0  0  0
   22.7767   42.5266   90.9417 H   0  0  0  0  0  0  0  0  0  0  0  0
   22.5363   41.0180   89.9764 H   0  0  0  0  0  0  0  0  0  0  0  0
   24.9822   41.3624   90.5504 H   0  0  0  0  0  0  0  0  0  0  0  0
   24.6938   41.4293   88.7646 H   0  0  0  0  0  0  0  0  0  0  0  0
   25.0604   43.7267   90.5920 H   0  0  0  0  0  0  0  0  0  0  0  0
   24.8802   45.1994   88.8190 H   0  0  0  0  0  0  0  0  0  0  0  0
   24.8168   43.7702   87.6629 H   0  0  0  0  0  0  0  0  0  0  0  0
   22.6177   44.5917   87.6856 H   0  0  0  0  0  0  0  0  0  0  0  0
   22.6691   44.8231   89.5107 H   0  0  0  0  0  0  0  0  0  0  0  0
   25.3774   39.6267   86.8047 H   0  0  0  0  0  0  0  0  0  0  0  0
   26.2850   41.9980   86.8207 H   0  0  0  0  0  0  0  0  0  0  0  0
   25.4473   43.6691   85.1018 H   0  0  0  0  0  0  0  0  0  0  0  0
   23.8047   42.9707   83.2923 H   0  0  0  0  0  0  0  0  0  0  0  0
   22.8792   40.6163   83.2930 H   0  0  0  0  0  0  0  0  0  0  0  0
   24.5144   35.4129   82.5138 H   0  0  0  0  0  0  0  0  0  0  0  0
   26.7352   34.9534   81.3710 H   0  0  0  0  0  0  0  0  0  0  0  0
   28.8034   36.2738   82.0354 H   0  0  0  0  0  0  0  0  0  0  0  0
   28.6985   38.0326   83.8479 H   0  0  0  0  0  0  0  0  0  0  0  0
   26.4906   38.4935   84.9911 H   0  0  0  0  0  0  0  0  0  0  0  0
  1 31  1  0  0  0  0
  2  1  2  0  0  0  0
  3  2  1  0  0  0  0
  4  3  2  0  0  0  0
  5  4  1  0  0  0  0
  6  1  1  0  0  0  0
  6  5  2  0  0  0  0
  7  3  1  0  0  0  0
  8  7  1  0  0  0  0
  9  8  2  0  0  0  0
  9  4  1  0  0  0  0
 10  5  1  0  0  0  0
 10 32  1  0  0  0  0
 11 10  1  0  0  0  0
 11 33  1  0  0  0  0
 11 34  1  0  0  0  0
 12 11  1  0  0  0  0
 12 35  1  0  0  0  0
 12 36  1  0  0  0  0
 13 12  1  0  0  0  0
 14 13  1  0  0  0  0
 14 37  1  0  0  0  0
 14 38  1  0  0  0  0
 15 14  1  0  0  0  0
 15 39  1  0  0  0  0
 15 40  1  0  0  0  0
 16 15  1  0  0  0  0
 16 41  1  0  0  0  0
 17 16  1  0  0  0  0
 17 42  1  0  0  0  0
 17 43  1  0  0  0  0
 18 13  1  0  0  0  0
 18 17  1  0  0  0  0
 18 44  1  0  0  0  0
 18 45  1  0  0  0  0
 19  9  1  0  0  0  0
 20 19  2  0  0  0  0
 20 46  1  0  0  0  0
 21 20  1  0  0  0  0
 21 47  1  0  0  0  0
 22 21  2  0  0  0  0
 22 48  1  0  0  0  0
 23 22  1  0  0  0  0
 23 49  1  0  0  0  0
 24 23  2  0  0  0  0
 24 19  1  0  0  0  0
 24 50  1  0  0  0  0
 25  8  1  0  0  0  0
 26 25  2  0  0  0  0
 26 51  1  0  0  0  0
 27 26  1  0  0  0  0
 27 52  1  0  0  0  0
 28 27  2  0  0  0  0
 28 53  1  0  0  0  0
 29 28  1  0  0  0  0
 29 54  1  0  0  0  0
 30 25  1  0  0  0  0
 30 29  2  0  0  0  0
 30 55  1  0  0  0  0
M  END
$$$$
