@<TRIPOS>MOLECULE
979
 55 59 0 0 0
SMALL
GASTEIGER

@<TRIPOS>ATOM
      1 C          19.9110   36.7740   86.3700 C.ar    1  UNL1        0.1219
      2 N          20.9140   36.1270   85.7770 N.ar    1  UNL1       -0.2005
      3 C          22.0480   36.7860   85.3480 C.ar    1  UNL1        0.2331
      4 C          22.2310   38.1650   85.5580 C.ar    1  UNL1        0.0878
      5 C          21.1180   38.8070   86.2310 C.ar    1  UNL1        0.1335
      6 N          20.0380   38.0910   86.6040 N.ar    1  UNL1       -0.2201
      7 O          23.1310   36.2330   84.7410 O.2     1  UNL1       -0.4360
      8 C          24.0200   37.2550   84.5070 C.ar    1  UNL1        0.1460
      9 C          23.4770   38.5740   85.0600 C.ar    1  UNL1        0.0406
     10 N          21.0600   40.1360   86.5500 N.pl3   1  UNL1       -0.3272
     11 C          21.6460   40.5990   87.7950 C.3     1  UNL1        0.0232
     12 C          22.2090   42.0160   87.6180 C.3     1  UNL1        0.0145
     13 N          22.2870   42.8360   88.8750 N.3     1  UNL1       -0.2984
     14 C          22.9580   42.0340   89.9750 C.3     1  UNL1        0.0115
     15 C          24.5260   41.9330   89.7280 C.3     1  UNL1        0.0087
     16 N          25.1520   43.2810   89.6680 N.3     1  UNL1       -0.3136
     17 C          24.5230   44.1740   88.6430 C.3     1  UNL1        0.0087
     18 C          22.9590   44.1970   88.6540 C.3     1  UNL1        0.0115
     19 C          24.0750   39.9610   85.0390 C.ar    1  UNL1       -0.0135
     20 C          25.0390   40.3540   86.0520 C.ar    1  UNL1       -0.0539
     21 C          25.5460   41.6910   86.0660 C.ar    1  UNL1       -0.0612
     22 C          25.0760   42.6340   85.0770 C.ar    1  UNL1       -0.0617
     23 C          24.1280   42.2470   84.0550 C.ar    1  UNL1       -0.0612
     24 C          23.6190   40.9180   84.0490 C.ar    1  UNL1       -0.0539
     25 C          25.3440   36.9880   83.8450 C.ar    1  UNL1        0.0180
     26 C          25.4140   35.9760   82.8030 C.ar    1  UNL1       -0.0511
     27 C          26.6670   35.7200   82.1570 C.ar    1  UNL1       -0.0611
     28 C          27.8480   36.4750   82.5420 C.ar    1  UNL1       -0.0617
     29 C          27.7960   37.4720   83.5630 C.ar    1  UNL1       -0.0611
     30 C          26.5460   37.7250   84.2060 C.ar    1  UNL1       -0.0511
     31 H          18.9954   36.2393   86.6627 H       1  UNL1        0.1049
     32 H          20.6039   40.8033   85.9116 H       1  UNL1        0.1475
     33 H          20.8742   40.6094   88.5787 H       1  UNL1        0.0474
     34 H          22.4625   39.9205   88.0829 H       1  UNL1        0.0474
     35 H          23.2248   41.9293   87.2049 H       1  UNL1        0.0442
     36 H          21.5075   42.5421   86.9538 H       1  UNL1        0.0442
     37 H          22.7767   42.5266   90.9417 H       1  UNL1        0.0439
     38 H          22.5363   41.0180   89.9764 H       1  UNL1        0.0439
     39 H          24.9822   41.3624   90.5504 H       1  UNL1        0.0437
     40 H          24.6938   41.4293   88.7646 H       1  UNL1        0.0437
     41 H          25.0604   43.7267   90.5920 H       1  UNL1        0.1220
     42 H          24.8802   45.1994   88.8190 H       1  UNL1        0.0437
     43 H          24.8168   43.7702   87.6629 H       1  UNL1        0.0437
     44 H          22.6177   44.5917   87.6856 H       1  UNL1        0.0439
     45 H          22.6691   44.8231   89.5107 H       1  UNL1        0.0439
     46 H          25.3774   39.6267   86.8047 H       1  UNL1        0.0624
     47 H          26.2850   41.9980   86.8207 H       1  UNL1        0.0618
     48 H          25.4473   43.6691   85.1018 H       1  UNL1        0.0618
     49 H          23.8047   42.9707   83.2923 H       1  UNL1        0.0618
     50 H          22.8792   40.6163   83.2930 H       1  UNL1        0.0624
     51 H          24.5144   35.4129   82.5138 H       1  UNL1        0.0625
     52 H          26.7352   34.9534   81.3710 H       1  UNL1        0.0618
     53 H          28.8034   36.2738   82.0354 H       1  UNL1        0.0618
     54 H          28.6985   38.0326   83.8479 H       1  UNL1        0.0618
     55 H          26.4906   38.4935   84.9911 H       1  UNL1        0.0625
@<TRIPOS>BOND
     1     2     1   ar
     2     3     2   ar
     3     4     3   ar
     4     5     4   ar
     5     6     1   ar
     6     6     5   ar
     7     7     3   ar
     8     8     7   ar
     9     9     8   ar
    10     9     4   ar
    11    10     5    1
    12    11    10    1
    13    12    11    1
    14    13    12    1
    15    14    13    1
    16    15    14    1
    17    16    15    1
    18    17    16    1
    19    18    13    1
    20    18    17    1
    21    19     9    1
    22    20    19   ar
    23    21    20   ar
    24    22    21   ar
    25    23    22   ar
    26    24    23   ar
    27    24    19   ar
    28    25     8    1
    29    26    25   ar
    30    27    26   ar
    31    28    27   ar
    32    29    28   ar
    33    30    25   ar
    34    30    29   ar
    35     1    31    1
    36    10    32    1
    37    11    33    1
    38    11    34    1
    39    12    35    1
    40    12    36    1
    41    14    37    1
    42    14    38    1
    43    15    39    1
    44    15    40    1
    45    16    41    1
    46    17    42    1
    47    17    43    1
    48    18    44    1
    49    18    45    1
    50    20    46    1
    51    21    47    1
    52    22    48    1
    53    23    49    1
    54    24    50    1
    55    26    51    1
    56    27    52    1
    57    28    53    1
    58    29    54    1
    59    30    55    1
