@<TRIPOS>MOLECULE
81A
 57 59 0 0 0
SMALL
GASTEIGER

@<TRIPOS>ATOM
      1 C          19.7690  -13.3850   20.1970 C.ar    1  UNL1       -0.0139
      2 C          19.1750  -13.1800   18.9600 C.ar    1  UNL1       -0.0435
      3 C          20.0370  -13.0450   17.7500 C.3     1  UNL1       -0.0395
      4 C          17.7650  -13.0830   18.8510 C.ar    1  UNL1       -0.0168
      5 C          16.9550  -13.1810   20.0100 C.ar    1  UNL1        0.1243
      6 C          17.5700  -13.4000   21.2490 C.ar    1  UNL1        0.0247
      7 C          18.9750  -13.4930   21.3510 C.ar    1  UNL1        0.1605
      8 O          19.5650  -13.6840   22.5920 O.3     1  UNL1       -0.3421
      9 S          19.8180  -15.1570   23.1310 S.O2    1  UNL1        0.1528
     10 O          20.5110  -15.9130   22.1150 O.2     1  UNL1       -0.1313
     11 O          18.5690  -15.8210   23.3960 O.2     1  UNL1       -0.1313
     12 C          20.6220  -15.0550   24.8050 C.ar    1  UNL1        0.1527
     13 C          20.5800  -13.8640   25.5290 C.ar    1  UNL1       -0.0315
     14 C          21.1800  -13.7670   26.7810 C.ar    1  UNL1       -0.0597
     15 C          21.8440  -14.8760   27.3040 C.ar    1  UNL1       -0.0598
     16 C          21.9130  -16.0770   26.6020 C.ar    1  UNL1       -0.0349
     17 C          21.3210  -16.1680   25.3600 C.ar    1  UNL1        0.1160
     18 S          21.4860  -17.6960   24.4840 S.O2    1  UNL1       -0.0040
     19 O          22.4620  -17.4520   23.4740 O.2     1  UNL1       -0.1696
     20 O          20.2730  -18.3000   24.0290 O.2     1  UNL1       -0.1696
     21 C          22.2250  -18.7180   25.7420 C.3     1  UNL1        0.0597
     22 O          15.5640  -13.0670   19.9610 O.3     1  UNL1       -0.4912
     23 C          14.9270  -12.8230   21.2460 C.3     1  UNL1        0.0974
     24 C          13.4460  -13.2490   21.2290 C.3     1  UNL1        0.0319
     25 C          12.9920  -14.6480   21.7310 C.3     1  UNL1       -0.0413
     26 C          12.9740  -14.3130   20.2220 C.3     1  UNL1       -0.0413
     27 C          12.3740  -12.2180   21.5420 C.3     1  UNL1        0.0985
     28 O          12.1630  -11.8780   22.9030 O.3     1  UNL1       -0.2178
     29 N          12.4250  -10.6480   23.1530 N.3     1  UNL1       -0.1394
     30 C          11.9280  -10.0720   24.2340 C.2     1  UNL1        0.4042
     31 N          12.2510   -8.8520   24.5410 N.pl3   1  UNL1       -0.1277
     32 N          11.0590  -10.7460   25.0070 N.pl3   1  UNL1       -0.2872
     33 H          20.8635  -13.4631   20.2743 H       1  UNL1        0.0658
     34 H          21.0799  -12.8817   18.0592 H       1  UNL1        0.0278
     35 H          19.9723  -13.9642   17.1493 H       1  UNL1        0.0278
     36 H          19.6944  -12.1896   17.1493 H       1  UNL1        0.0278
     37 H          17.2991  -12.9315   17.8661 H       1  UNL1        0.0657
     38 H          16.9513  -13.5007   22.1529 H       1  UNL1        0.0692
     39 H          20.0656  -12.9891   25.1048 H       1  UNL1        0.0638
     40 H          21.1310  -12.8273   27.3508 H       1  UNL1        0.0618
     41 H          22.3232  -14.8008   28.2913 H       1  UNL1        0.0618
     42 H          22.4344  -16.9440   27.0339 H       1  UNL1        0.0637
     43 H          21.9480  -18.3349   26.7352 H       1  UNL1        0.0468
     44 H          21.8639  -19.7514   25.6338 H       1  UNL1        0.0468
     45 H          23.3195  -18.6988   25.6338 H       1  UNL1        0.0468
     46 H          15.4554  -13.3962   22.0220 H       1  UNL1        0.0703
     47 H          14.9747  -11.7445   21.4570 H       1  UNL1        0.0703
     48 H          13.7321  -15.3576   22.1294 H       1  UNL1        0.0273
     49 H          12.2522  -15.0141   22.4581 H       1  UNL1        0.0273
     50 H          13.6997  -14.7885   19.5458 H       1  UNL1        0.0273
     51 H          12.2114  -14.3460   19.4300 H       1  UNL1        0.0273
     52 H          12.6424  -11.2932   21.0102 H       1  UNL1        0.0606
     53 H          11.4328  -12.6906   21.2245 H       1  UNL1        0.0606
     54 H          13.0231  -10.1084   22.5111 H       1  UNL1        0.2988
     55 H          11.8582   -8.4122   25.3855 H       1  UNL1        0.3063
     56 H          10.6685  -10.3022   25.8505 H       1  UNL1        0.2547
     57 H          10.7836  -11.7062   24.7558 H       1  UNL1        0.2547
@<TRIPOS>BOND
     1     2     1   ar
     2     3     2    1
     3     4     2   ar
     4     5     4   ar
     5     6     5   ar
     6     7     6   ar
     7     7     1   ar
     8     8     7    1
     9     9     8    1
    10    10     9    2
    11    11     9    2
    12    12     9    1
    13    13    12   ar
    14    14    13   ar
    15    15    14   ar
    16    16    15   ar
    17    17    12   ar
    18    17    16   ar
    19    18    17    1
    20    19    18    2
    21    20    18    2
    22    21    18    1
    23    22     5    1
    24    23    22    1
    25    24    23    1
    26    25    24    1
    27    26    25    1
    28    26    24    1
    29    27    24    1
    30    28    27    1
    31    29    28    1
    32    30    29    1
    33    31    30    2
    34    32    30    1
    35     1    33    1
    36     3    34    1
    37     3    35    1
    38     3    36    1
    39     4    37    1
    40     6    38    1
    41    13    39    1
    42    14    40    1
    43    15    41    1
    44    16    42    1
    45    21    43    1
    46    21    44    1
    47    21    45    1
    48    23    46    1
    49    23    47    1
    50    25    48    1
    51    25    49    1
    52    26    50    1
    53    26    51    1
    54    27    52    1
    55    27    53    1
    56    29    54    1
    57    31    55    1
    58    32    56    1
    59    32    57    1
