81A
 OpenBabel11072215013D

 57 59  0  0  0  0  0  0  0  0999 V2000
   19.7690  -13.3850   20.1970 C   0  0  0  0  0  0  0  0  0  0  0  0
   19.1750  -13.1800   18.9600 C   0  0  0  0  0  0  0  0  0  0  0  0
   20.0370  -13.0450   17.7500 C   0  0  0  0  0  0  0  0  0  0  0  0
   17.7650  -13.0830   18.8510 C   0  0  0  0  0  0  0  0  0  0  0  0
   16.9550  -13.1810   20.0100 C   0  0  0  0  0  0  0  0  0  0  0  0
   17.5700  -13.4000   21.2490 C   0  0  0  0  0  0  0  0  0  0  0  0
   18.9750  -13.4930   21.3510 C   0  0  0  0  0  0  0  0  0  0  0  0
   19.5650  -13.6840   22.5920 O   0  0  0  0  0  0  0  0  0  0  0  0
   19.8180  -15.1570   23.1310 S   0  0  0  0  0  0  0  0  0  0  0  0
   20.5110  -15.9130   22.1150 O   0  0  0  0  0  0  0  0  0  0  0  0
   18.5690  -15.8210   23.3960 O   0  0  0  0  0  0  0  0  0  0  0  0
   20.6220  -15.0550   24.8050 C   0  0  0  0  0  0  0  0  0  0  0  0
   20.5800  -13.8640   25.5290 C   0  0  0  0  0  0  0  0  0  0  0  0
   21.1800  -13.7670   26.7810 C   0  0  0  0  0  0  0  0  0  0  0  0
   21.8440  -14.8760   27.3040 C   0  0  0  0  0  0  0  0  0  0  0  0
   21.9130  -16.0770   26.6020 C   0  0  0  0  0  0  0  0  0  0  0  0
   21.3210  -16.1680   25.3600 C   0  0  0  0  0  0  0  0  0  0  0  0
   21.4860  -17.6960   24.4840 S   0  0  0  0  0  0  0  0  0  0  0  0
   22.4620  -17.4520   23.4740 O   0  0  0  0  0  0  0  0  0  0  0  0
   20.2730  -18.3000   24.0290 O   0  0  0  0  0  0  0  0  0  0  0  0
   22.2250  -18.7180   25.7420 C   0  0  0  0  0  0  0  0  0  0  0  0
   15.5640  -13.0670   19.9610 O   0  0  0  0  0  0  0  0  0  0  0  0
   14.9270  -12.8230   21.2460 C   0  0  0  0  0  0  0  0  0  0  0  0
   13.4460  -13.2490   21.2290 C   0  0  0  0  0  0  0  0  0  0  0  0
   12.9920  -14.6480   21.7310 C   0  0  0  0  0  0  0  0  0  0  0  0
   12.9740  -14.3130   20.2220 C   0  0  0  0  0  0  0  0  0  0  0  0
   12.3740  -12.2180   21.5420 C   0  0  0  0  0  0  0  0  0  0  0  0
   12.1630  -11.8780   22.9030 O   0  0  0  0  0  0  0  0  0  0  0  0
   12.4250  -10.6480   23.1530 N   0  0  0  0  0  0  0  0  0  0  0  0
   11.9280  -10.0720   24.2340 C   0  0  0  0  0  0  0  0  0  0  0  0
   12.2510   -8.8520   24.5410 N   0  0  0  0  0  0  0  0  0  0  0  0
   11.0590  -10.7460   25.0070 N   0  0  0  0  0  0  0  0  0  0  0  0
   20.8635  -13.4631   20.2743 H   0  0  0  0  0  0  0  0  0  0  0  0
   21.0799  -12.8817   18.0592 H   0  0  0  0  0  0  0  0  0  0  0  0
   19.9723  -13.9642   17.1493 H   0  0  0  0  0  0  0  0  0  0  0  0
   19.6944  -12.1896   17.1493 H   0  0  0  0  0  0  0  0  0  0  0  0
   17.2991  -12.9315   17.8661 H   0  0  0  0  0  0  0  0  0  0  0  0
   16.9513  -13.5007   22.1529 H   0  0  0  0  0  0  0  0  0  0  0  0
   20.0656  -12.9891   25.1048 H   0  0  0  0  0  0  0  0  0  0  0  0
   21.1310  -12.8273   27.3508 H   0  0  0  0  0  0  0  0  0  0  0  0
   22.3232  -14.8008   28.2913 H   0  0  0  0  0  0  0  0  0  0  0  0
   22.4344  -16.9440   27.0339 H   0  0  0  0  0  0  0  0  0  0  0  0
   21.9480  -18.3349   26.7352 H   0  0  0  0  0  0  0  0  0  0  0  0
   21.8639  -19.7514   25.6338 H   0  0  0  0  0  0  0  0  0  0  0  0
   23.3195  -18.6988   25.6338 H   0  0  0  0  0  0  0  0  0  0  0  0
   15.4554  -13.3962   22.0220 H   0  0  0  0  0  0  0  0  0  0  0  0
   14.9747  -11.7445   21.4570 H   0  0  0  0  0  0  0  0  0  0  0  0
   13.7321  -15.3576   22.1294 H   0  0  0  0  0  0  0  0  0  0  0  0
   12.2522  -15.0141   22.4581 H   0  0  0  0  0  0  0  0  0  0  0  0
   13.6997  -14.7885   19.5458 H   0  0  0  0  0  0  0  0  0  0  0  0
   12.2114  -14.3460   19.4300 H   0  0  0  0  0  0  0  0  0  0  0  0
   12.6424  -11.2932   21.0102 H   0  0  0  0  0  0  0  0  0  0  0  0
   11.4328  -12.6906   21.2245 H   0  0  0  0  0  0  0  0  0  0  0  0
   13.0231  -10.1084   22.5111 H   0  0  0  0  0  0  0  0  0  0  0  0
   11.8582   -8.4122   25.3855 H   0  0  0  0  0  0  0  0  0  0  0  0
   10.6685  -10.3022   25.8505 H   0  0  0  0  0  0  0  0  0  0  0  0
   10.7836  -11.7062   24.7558 H   0  0  0  0  0  0  0  0  0  0  0  0
  1 33  1  0  0  0  0
  2  1  2  0  0  0  0
  3  2  1  0  0  0  0
  3 34  1  0  0  0  0
  3 35  1  0  0  0  0
  3 36  1  0  0  0  0
  4  2  1  0  0  0  0
  4 37  1  0  0  0  0
  5  4  2  0  0  0  0
  6  5  1  0  0  0  0
  6 38  1  0  0  0  0
  7  6  2  0  0  0  0
  7  1  1  0  0  0  0
  8  7  1  0  0  0  0
  9  8  1  0  0  0  0
 10  9  2  0  0  0  0
 11  9  2  0  0  0  0
 12  9  1  0  0  0  0
 13 12  2  0  0  0  0
 13 39  1  0  0  0  0
 14 13  1  0  0  0  0
 14 40  1  0  0  0  0
 15 14  2  0  0  0  0
 15 41  1  0  0  0  0
 16 15  1  0  0  0  0
 16 42  1  0  0  0  0
 17 12  1  0  0  0  0
 17 16  2  0  0  0  0
 18 17  1  0  0  0  0
 19 18  2  0  0  0  0
 20 18  2  0  0  0  0
 21 18  1  0  0  0  0
 21 43  1  0  0  0  0
 21 44  1  0  0  0  0
 21 45  1  0  0  0  0
 22  5  1  0  0  0  0
 23 22  1  0  0  0  0
 23 46  1  0  0  0  0
 23 47  1  0  0  0  0
 24 23  1  0  0  0  0
 25 24  1  0  0  0  0
 25 48  1  0  0  0  0
 25 49  1  0  0  0  0
 26 25  1  0  0  0  0
 26 24  1  0  0  0  0
 26 50  1  0  0  0  0
 26 51  1  0  0  0  0
 27 24  1  0  0  0  0
 27 52  1  0  0  0  0
 27 53  1  0  0  0  0
 28 27  1  0  0  0  0
 29 28  1  0  0  0  0
 29 54  1  0  0  0  0
 30 29  1  0  0  0  0
 31 30  2  0  0  0  0
 31 55  1  0  0  0  0
 32 30  1  0  0  0  0
 32 56  1  0  0  0  0
 32 57  1  0  0  0  0
M  END
$$$$
