Z34
 OpenBabel06022215143D

 62 65  0  0  0  0  0  0  0  0999 V2000
    8.5880    9.5410   22.7780 C   0  0  0  0  0  0  0  0  0  0  0  0
    8.5210    8.2340   23.3150 C   0  0  0  0  0  0  0  0  0  0  0  0
    8.3070    7.1510   22.4200 C   0  0  0  0  0  0  0  0  0  0  0  0
    8.1760    7.3960   21.0470 C   0  0  0  0  0  0  0  0  0  0  0  0
    8.2560    8.6380   20.6020 N   0  0  0  0  0  0  0  0  0  0  0  0
    8.4590    9.7110   21.3820 C   0  0  0  0  0  0  0  0  0  0  0  0
    8.7720   10.5820   23.5460 F   0  0  0  0  0  0  0  0  0  0  0  0
    8.2280    5.9350   22.8450 F   0  0  0  0  0  0  0  0  0  0  0  0
    7.9630    6.3900   20.2390 O   0  0  0  0  0  0  0  0  0  0  0  0
    7.0920    5.3870   20.2140 C   0  0  0  0  0  0  0  0  0  0  0  0
    5.7190    5.7600   20.2040 C   0  0  0  0  0  0  0  0  0  0  0  0
    4.7170    4.7710   20.1850 C   0  0  0  0  0  0  0  0  0  0  0  0
    5.0930    3.4180   20.1840 C   0  0  0  0  0  0  0  0  0  0  0  0
    6.4670    3.0420   20.1920 C   0  0  0  0  0  0  0  0  0  0  0  0
    7.4450    4.0370   20.2100 C   0  0  0  0  0  0  0  0  0  0  0  0
    6.8430    1.7010   20.1730 C   0  0  0  0  0  0  0  0  0  0  0  0
    6.8790    0.8020   21.1700 N   0  0  0  0  0  0  0  0  0  0  0  0
    7.3280   -0.4570   20.6900 C   0  0  0  0  0  0  0  0  0  0  0  0
    6.5340    0.9930   22.5340 C   0  0  0  0  0  0  0  0  0  0  0  0
    7.5830   -0.2180   19.1880 C   0  0  0  0  0  0  0  0  0  0  0  0
    7.2420    1.1360   19.0240 N   0  0  0  0  0  0  0  0  0  0  0  0
    8.6490    8.0290   24.6660 N   0  0  0  0  0  0  0  0  0  0  0  0
    7.7220    7.1510   25.3480 C   0  0  0  0  0  0  0  0  0  0  0  0
    9.7250    8.6880   25.4110 C   0  0  0  0  0  0  0  0  0  0  0  0
   10.9160    7.8420   25.7990 C   0  0  0  0  0  0  0  0  0  0  0  0
   12.0550    7.9600   25.2480 O   0  0  0  0  0  0  0  0  0  0  0  0
   10.7900    6.9100   26.7930 O   0  0  0  0  0  0  0  0  0  0  0  0
    8.5230   10.9120   20.8220 O   0  0  0  0  0  0  0  0  0  0  0  0
    7.5750   11.8480   20.8580 C   0  0  0  0  0  0  0  0  0  0  0  0
    6.3570   11.5360   20.2480 C   0  0  0  0  0  0  0  0  0  0  0  0
    5.2790   12.4530   20.2350 C   0  0  0  0  0  0  0  0  0  0  0  0
    5.4680   13.7190   20.8690 C   0  0  0  0  0  0  0  0  0  0  0  0
    6.6890   14.0320   21.4890 C   0  0  0  0  0  0  0  0  0  0  0  0
    7.7470   13.0910   21.4870 C   0  0  0  0  0  0  0  0  0  0  0  0
    8.8570   13.3820   22.0620 O   0  0  0  0  0  0  0  0  0  0  0  0
    4.0860   12.1040   19.6100 C   0  0  0  0  0  0  0  0  0  0  0  0
    2.9530   12.8120   19.8020 N   0  0  0  0  0  0  0  0  0  0  0  0
    3.9850   11.0880   18.7640 N   0  0  0  0  0  0  0  0  0  0  0  0
    5.4396    6.8239   20.2111 H   0  0  0  0  0  0  0  0  0  0  0  0
    3.6542    5.0543   20.1711 H   0  0  0  0  0  0  0  0  0  0  0  0
    4.3167    2.6387   20.1770 H   0  0  0  0  0  0  0  0  0  0  0  0
    8.5078    3.7536   20.2212 H   0  0  0  0  0  0  0  0  0  0  0  0
    8.2540   -0.7615   21.1996 H   0  0  0  0  0  0  0  0  0  0  0  0
    6.6006   -1.2619   20.8718 H   0  0  0  0  0  0  0  0  0  0  0  0
    7.3165    0.5598   23.1743 H   0  0  0  0  0  0  0  0  0  0  0  0
    6.4441    2.0694   22.7422 H   0  0  0  0  0  0  0  0  0  0  0  0
    5.5741    0.4978   22.7422 H   0  0  0  0  0  0  0  0  0  0  0  0
    8.6383   -0.3942   18.9326 H   0  0  0  0  0  0  0  0  0  0  0  0
    7.0084   -0.8930   18.5367 H   0  0  0  0  0  0  0  0  0  0  0  0
    7.8419    7.2646   26.4355 H   0  0  0  0  0  0  0  0  0  0  0  0
    6.6922    7.4127   25.0634 H   0  0  0  0  0  0  0  0  0  0  0  0
    7.9274    6.1085   25.0634 H   0  0  0  0  0  0  0  0  0  0  0  0
   10.0963    9.5176   24.7915 H   0  0  0  0  0  0  0  0  0  0  0  0
    9.2669    8.9869   26.3654 H   0  0  0  0  0  0  0  0  0  0  0  0
   11.5669    6.3533   27.0510 H   0  0  0  0  0  0  0  0  0  0  0  0
    6.2332   10.5547   19.7667 H   0  0  0  0  0  0  0  0  0  0  0  0
    4.6505   14.4550   20.8717 H   0  0  0  0  0  0  0  0  0  0  0  0
    6.8233   15.0089   21.9764 H   0  0  0  0  0  0  0  0  0  0  0  0
    9.6000   12.7278   22.0636 H   0  0  0  0  0  0  0  0  0  0  0  0
    2.0835   12.5313   19.3266 H   0  0  0  0  0  0  0  0  0  0  0  0
    3.0782   10.8700   18.3269 H   0  0  0  0  0  0  0  0  0  0  0  0
    4.8134   10.5168   18.5439 H   0  0  0  0  0  0  0  0  0  0  0  0
  2  1  2  0  0  0  0
  3  2  1  0  0  0  0
  4  3  2  0  0  0  0
  5  4  1  0  0  0  0
  6  5  2  0  0  0  0
  6  1  1  0  0  0  0
  7  1  1  0  0  0  0
  8  3  1  0  0  0  0
  9  4  1  0  0  0  0
 10  9  1  0  0  0  0
 11 10  2  0  0  0  0
 11 39  1  0  0  0  0
 12 11  1  0  0  0  0
 12 40  1  0  0  0  0
 13 12  2  0  0  0  0
 13 41  1  0  0  0  0
 14 13  1  0  0  0  0
 15 14  2  0  0  0  0
 15 10  1  0  0  0  0
 15 42  1  0  0  0  0
 16 14  1  0  0  0  0
 17 16  1  0  0  0  0
 18 17  1  0  0  0  0
 18 43  1  0  0  0  0
 18 44  1  0  0  0  0
 19 17  1  0  0  0  0
 19 45  1  0  0  0  0
 19 46  1  0  0  0  0
 19 47  1  0  0  0  0
 20 18  1  0  0  0  0
 20 48  1  0  0  0  0
 20 49  1  0  0  0  0
 21 20  1  0  0  0  0
 21 16  2  0  0  0  0
 22  2  1  0  0  0  0
 23 22  1  0  0  0  0
 23 50  1  0  0  0  0
 23 51  1  0  0  0  0
 23 52  1  0  0  0  0
 24 22  1  0  0  0  0
 24 53  1  0  0  0  0
 24 54  1  0  0  0  0
 25 24  1  0  0  0  0
 26 25  2  0  0  0  0
 27 25  1  0  0  0  0
 27 55  1  0  0  0  0
 28  6  1  0  0  0  0
 29 28  1  0  0  0  0
 30 29  2  0  0  0  0
 30 56  1  0  0  0  0
 31 30  1  0  0  0  0
 32 31  2  0  0  0  0
 32 57  1  0  0  0  0
 33 32  1  0  0  0  0
 33 58  1  0  0  0  0
 34 33  2  0  0  0  0
 34 29  1  0  0  0  0
 35 34  1  0  0  0  0
 35 59  1  0  0  0  0
 36 31  1  0  0  0  0
 37 36  2  0  0  0  0
 37 60  1  0  0  0  0
 38 36  1  0  0  0  0
 38 61  1  0  0  0  0
 38 62  1  0  0  0  0
M  END
$$$$
