@<TRIPOS>MOLECULE
Z34
 62 65 0 0 0
SMALL
GASTEIGER

@<TRIPOS>ATOM
      1 C           8.5880    9.5410   22.7780 C.ar    1  UNL1        0.2089
      2 C           8.5210    8.2340   23.3150 C.ar    1  UNL1        0.1119
      3 C           8.3070    7.1510   22.4200 C.ar    1  UNL1        0.2089
      4 C           8.1760    7.3960   21.0470 C.ar    1  UNL1        0.2617
      5 N           8.2560    8.6380   20.6020 N.ar    1  UNL1       -0.1721
      6 C           8.4590    9.7110   21.3820 C.ar    1  UNL1        0.2618
      7 F           8.7720   10.5820   23.5460 F       1  UNL1       -0.1978
      8 F           8.2280    5.9350   22.8450 F       1  UNL1       -0.1978
      9 O           7.9630    6.3900   20.2390 O.3     1  UNL1       -0.4355
     10 C           7.0920    5.3870   20.2140 C.ar    1  UNL1        0.1313
     11 C           5.7190    5.7600   20.2040 C.ar    1  UNL1       -0.0192
     12 C           4.7170    4.7710   20.1850 C.ar    1  UNL1       -0.0575
     13 C           5.0930    3.4180   20.1840 C.ar    1  UNL1       -0.0467
     14 C           6.4670    3.0420   20.1920 C.ar    1  UNL1        0.0686
     15 C           7.4450    4.0370   20.2100 C.ar    1  UNL1       -0.0044
     16 C           6.8430    1.7010   20.1730 C.2     1  UNL1        0.3149
     17 N           6.8790    0.8020   21.1700 N.pl3   1  UNL1       -0.2192
     18 C           7.3280   -0.4570   20.6900 C.3     1  UNL1        0.1219
     19 C           6.5340    0.9930   22.5340 C.3     1  UNL1        0.0698
     20 C           7.5830   -0.2180   19.1880 C.3     1  UNL1        0.1676
     21 N           7.2420    1.1360   19.0240 N.2     1  UNL1       -0.0790
     22 N           8.6490    8.0290   24.6660 N.pl3   1  UNL1       -0.3177
     23 C           7.7220    7.1510   25.3480 C.3     1  UNL1        0.0014
     24 C           9.7250    8.6880   25.4110 C.3     1  UNL1        0.1092
     25 C          10.9160    7.8420   25.7990 C.2     1  UNL1        0.3222
     26 O          12.0550    7.9600   25.2480 O.2     1  UNL1       -0.2492
     27 O          10.7900    6.9100   26.7930 O.3     1  UNL1       -0.4795
     28 O           8.5230   10.9120   20.8220 O.3     1  UNL1       -0.4318
     29 C           7.5750   11.8480   20.8580 C.ar    1  UNL1        0.1724
     30 C           6.3570   11.5360   20.2480 C.ar    1  UNL1       -0.0008
     31 C           5.2790   12.4530   20.2350 C.ar    1  UNL1        0.0684
     32 C           5.4680   13.7190   20.8690 C.ar    1  UNL1       -0.0432
     33 C           6.6890   14.0320   21.4890 C.ar    1  UNL1       -0.0157
     34 C           7.7470   13.0910   21.4870 C.ar    1  UNL1        0.1592
     35 O           8.8570   13.3820   22.0620 O.3     1  UNL1       -0.5033
     36 C           4.0860   12.1040   19.6100 C.2     1  UNL1        0.3082
     37 N           2.9530   12.8120   19.8020 N.2     1  UNL1       -0.0994
     38 N           3.9850   11.0880   18.7640 N.pl3   1  UNL1       -0.2466
     39 H           5.4396    6.8239   20.2111 H       1  UNL1        0.0654
     40 H           3.6542    5.0543   20.1711 H       1  UNL1        0.0619
     41 H           4.3167    2.6387   20.1770 H       1  UNL1        0.0626
     42 H           8.5078    3.7536   20.2212 H       1  UNL1        0.0663
     43 H           8.2540   -0.7615   21.1996 H       1  UNL1        0.0767
     44 H           6.6006   -1.2619   20.8718 H       1  UNL1        0.0767
     45 H           7.3165    0.5598   23.1743 H       1  UNL1        0.0689
     46 H           6.4441    2.0694   22.7422 H       1  UNL1        0.0689
     47 H           5.5741    0.4978   22.7422 H       1  UNL1        0.0689
     48 H           8.6383   -0.3942   18.9326 H       1  UNL1        0.0829
     49 H           7.0084   -0.8930   18.5367 H       1  UNL1        0.0829
     50 H           7.8419    7.2646   26.4355 H       1  UNL1        0.0428
     51 H           6.6922    7.4127   25.0634 H       1  UNL1        0.0428
     52 H           7.9274    6.1085   25.0634 H       1  UNL1        0.0428
     53 H          10.0963    9.5176   24.7915 H       1  UNL1        0.0579
     54 H           9.2669    8.9869   26.3654 H       1  UNL1        0.0579
     55 H          11.5669    6.3533   27.0510 H       1  UNL1        0.2951
     56 H           6.2332   10.5547   19.7667 H       1  UNL1        0.0664
     57 H           4.6505   14.4550   20.8717 H       1  UNL1        0.0627
     58 H           6.8233   15.0089   21.9764 H       1  UNL1        0.0655
     59 H           9.6000   12.7278   22.0636 H       1  UNL1        0.2923
     60 H           2.0835   12.5313   19.3266 H       1  UNL1        0.3633
     61 H           3.0782   10.8700   18.3269 H       1  UNL1        0.2884
     62 H           4.8134   10.5168   18.5439 H       1  UNL1        0.2884
@<TRIPOS>BOND
     1     2     1   ar
     2     3     2   ar
     3     4     3   ar
     4     5     4   ar
     5     6     5   ar
     6     6     1   ar
     7     7     1    1
     8     8     3    1
     9     9     4    1
    10    10     9    1
    11    11    10   ar
    12    12    11   ar
    13    13    12   ar
    14    14    13   ar
    15    15    14   ar
    16    15    10   ar
    17    16    14    1
    18    17    16    1
    19    18    17    1
    20    19    17    1
    21    20    18    1
    22    21    20    1
    23    21    16    2
    24    22     2    1
    25    23    22    1
    26    24    22    1
    27    25    24    1
    28    26    25    2
    29    27    25    1
    30    28     6    1
    31    29    28    1
    32    30    29   ar
    33    31    30   ar
    34    32    31   ar
    35    33    32   ar
    36    34    33   ar
    37    34    29   ar
    38    35    34    1
    39    36    31    1
    40    37    36    2
    41    38    36    1
    42    11    39    1
    43    12    40    1
    44    13    41    1
    45    15    42    1
    46    18    43    1
    47    18    44    1
    48    19    45    1
    49    19    46    1
    50    19    47    1
    51    20    48    1
    52    20    49    1
    53    23    50    1
    54    23    51    1
    55    23    52    1
    56    24    53    1
    57    24    54    1
    58    27    55    1
    59    30    56    1
    60    32    57    1
    61    33    58    1
    62    35    59    1
    63    37    60    1
    64    38    61    1
    65    38    62    1
