@<TRIPOS>MOLECULE
CBB
 63 66 0 0 0
SMALL
GASTEIGER

@<TRIPOS>ATOM
      1 C           7.7000    0.1100   18.5680 C.ar    1  UNL1       -0.0598
      2 C           7.1600    1.3990   18.3990 C.ar    1  UNL1       -0.0376
      3 C           6.5680    2.0410   19.5070 C.ar    1  UNL1        0.0500
      4 C           6.4870    1.3900   20.7820 C.ar    1  UNL1        0.0007
      5 C           7.0510    0.0980   20.9370 C.ar    1  UNL1       -0.0526
      6 C           7.6660   -0.5380   19.8300 C.ar    1  UNL1       -0.0611
      7 N           5.9690    3.2840   19.6480 N.ar    1  UNL1       -0.3303
      8 C           5.5020    3.4320   20.9040 C.ar    1  UNL1        0.1283
      9 C           5.8080    2.2700   21.6550 C.ar    1  UNL1       -0.0220
     10 C           4.7570    4.5210   21.3500 C.2     1  UNL1        0.3559
     11 O           3.5640    4.5770   21.3320 O.2     1  UNL1       -0.2433
     12 O           5.4790    5.5090   21.8350 O.3     1  UNL1       -0.4599
     13 C           5.2370    6.8700   21.3780 C.3     1  UNL1        0.0957
     14 C           6.4910    7.7350   21.2690 C.3     1  UNL1       -0.0059
     15 C           7.7610    7.3870   21.8020 C.3     1  UNL1       -0.0471
     16 C           8.8580    8.2850   21.6690 C.3     1  UNL1       -0.0519
     17 C           8.6840    9.5210   21.0010 C.3     1  UNL1       -0.0392
     18 C           7.4150    9.8580   20.4570 C.3     1  UNL1        0.0618
     19 C           6.3340    8.9620   20.5890 C.3     1  UNL1       -0.0333
     20 C           7.1220   11.1310   19.8000 C.2     1  UNL1        0.2792
     21 N           8.0930   12.0030   19.5670 N.2     1  UNL1       -0.1038
     22 N           5.8940   11.3800   19.3570 N.pl3   1  UNL1       -0.2506
     23 C           5.8200    4.2130   18.5490 C.3     1  UNL1        0.0488
     24 C           6.9420    5.1950   18.4210 C.2     1  UNL1       -0.0311
     25 C           8.2920    5.0420   18.8500 C.2     1  UNL1       -0.0610
     26 C           9.2110    6.1030   18.6290 C.2     1  UNL1       -0.0826
     27 C           8.7810    7.2950   17.9950 C.3     1  UNL1       -0.0172
     28 C           7.4300    7.3950   17.5630 C.3     1  UNL1        0.0835
     29 C           6.5320    6.3480   17.7910 C.2     1  UNL1       -0.0644
     30 C           6.8780    8.5320   16.8500 C.2     1  UNL1        0.2833
     31 N           5.5870    8.8470   16.9420 N.2     1  UNL1       -0.1035
     32 N           7.7640    9.2230   16.0920 N.pl3   1  UNL1       -0.2503
     33 H           8.1555   -0.4030   17.7082 H       1  UNL1        0.0618
     34 H           7.1990    1.8974   17.4192 H       1  UNL1        0.0638
     35 H           7.0112   -0.4084   21.9127 H       1  UNL1        0.0624
     36 H           8.1171   -1.5342   19.9490 H       1  UNL1        0.0618
     37 H           5.5644    2.0882   22.7122 H       1  UNL1        0.0647
     38 H           4.7668    6.8202   20.3848 H       1  UNL1        0.0700
     39 H           4.5952    7.3443   22.1351 H       1  UNL1        0.0700
     40 H           6.2302    8.2322   22.2149 H       1  UNL1        0.0334
     41 H           7.6179    7.2175   22.8794 H       1  UNL1        0.0269
     42 H           8.0644    6.5241   21.1910 H       1  UNL1        0.0269
     43 H           9.2013    8.5200   22.6873 H       1  UNL1        0.0266
     44 H           9.5534    7.7394   21.0142 H       1  UNL1        0.0266
     45 H           8.9416   10.3113   21.7215 H       1  UNL1        0.0273
     46 H           9.3242    9.4224   20.1120 H       1  UNL1        0.0273
     47 H           7.6953    9.3798   19.5069 H       1  UNL1        0.0422
     48 H           5.5347    9.5094   21.1101 H       1  UNL1        0.0277
     49 H           6.1521    8.6446   19.5516 H       1  UNL1        0.0277
     50 H           7.8810   12.8982   19.1039 H       1  UNL1        0.3629
     51 H           5.6854   12.2761   18.8939 H       1  UNL1        0.2881
     52 H           5.1509   10.6769   19.4768 H       1  UNL1        0.2881
     53 H           5.7584    3.6355   17.6148 H       1  UNL1        0.0541
     54 H           4.9095    4.7969   18.7492 H       1  UNL1        0.0541
     55 H           8.6183    4.1156   19.3453 H       1  UNL1        0.0618
     56 H          10.2578    5.9988   18.9506 H       1  UNL1        0.0572
     57 H           8.9551    8.1183   18.7034 H       1  UNL1        0.0319
     58 H           9.3605    7.3217   17.0604 H       1  UNL1        0.0319
     59 H           7.7059    6.9479   16.5966 H       1  UNL1        0.0469
     60 H           5.4866    6.4468   17.4634 H       1  UNL1        0.0584
     61 H           5.2169    9.6586   16.4270 H       1  UNL1        0.3629
     62 H           7.4515   10.0440   15.5543 H       1  UNL1        0.2881
     63 H           8.7498    8.9271   16.0537 H       1  UNL1        0.2881
@<TRIPOS>BOND
     1     2     1   ar
     2     3     2   ar
     3     4     3   ar
     4     5     4   ar
     5     6     5   ar
     6     6     1   ar
     7     7     3   ar
     8     8     7   ar
     9     9     8   ar
    10     9     4   ar
    11    10     8    1
    12    11    10    2
    13    12    10    1
    14    13    12    1
    15    14    13    1
    16    15    14    1
    17    16    15    1
    18    17    16    1
    19    18    17    1
    20    19    18    1
    21    19    14    1
    22    20    18    1
    23    21    20    2
    24    22    20    1
    25    23     7    1
    26    24    23    1
    27    25    24    1
    28    26    25    2
    29    27    26    1
    30    28    27    1
    31    29    24    2
    32    29    28    1
    33    30    28    1
    34    31    30    2
    35    32    30    1
    36     1    33    1
    37     2    34    1
    38     5    35    1
    39     6    36    1
    40     9    37    1
    41    13    38    1
    42    13    39    1
    43    14    40    1
    44    15    41    1
    45    15    42    1
    46    16    43    1
    47    16    44    1
    48    17    45    1
    49    17    46    1
    50    18    47    1
    51    19    48    1
    52    19    49    1
    53    21    50    1
    54    22    51    1
    55    22    52    1
    56    23    53    1
    57    23    54    1
    58    25    55    1
    59    26    56    1
    60    27    57    1
    61    27    58    1
    62    28    59    1
    63    29    60    1
    64    31    61    1
    65    32    62    1
    66    32    63    1
