@<TRIPOS>MOLECULE
IID
 61 64 0 0 0
SMALL
GASTEIGER

@<TRIPOS>ATOM
      1 C           5.0430   -3.4550   17.9270 C.ar    1  UNL1       -0.0598
      2 C           5.2330   -2.4650   19.0070 C.ar    1  UNL1       -0.0376
      3 C           5.9340   -1.1900   18.7280 C.ar    1  UNL1        0.0499
      4 C           6.4750   -0.9100   17.3670 C.ar    1  UNL1        0.0006
      5 C           6.2530   -1.8960   16.2930 C.ar    1  UNL1       -0.0526
      6 C           5.5360   -3.1610   16.5640 C.ar    1  UNL1       -0.0611
      7 N           6.2640   -0.0960   19.5190 N.ar    1  UNL1       -0.3318
      8 C           6.9720    0.7730   18.7600 C.ar    1  UNL1        0.1057
      9 C           7.1360    0.3300   17.4320 C.ar    1  UNL1       -0.0239
     10 C           7.5300    1.9460   19.2450 C.2     1  UNL1        0.2608
     11 N           6.6770    2.9620   19.4740 N.am    1  UNL1       -0.3072
     12 O           8.7440    2.0310   19.4340 O.2     1  UNL1       -0.2686
     13 C           7.4110    4.1770   19.7420 C.3     1  UNL1        0.0258
     14 C           7.3060    5.2040   18.6170 C.3     1  UNL1       -0.0216
     15 C           8.0900    6.4920   18.9150 C.3     1  UNL1        0.0008
     16 N           7.6830    7.0740   20.2430 N.3     1  UNL1       -0.2998
     17 C           7.6720    6.1110   21.3850 C.3     1  UNL1        0.0008
     18 C           6.8870    4.8510   21.0100 C.3     1  UNL1       -0.0216
     19 C           8.4970    8.3000   20.4840 C.3     1  UNL1        0.0048
     20 C           8.8110    8.5950   21.9430 C.3     1  UNL1       -0.0497
     21 C           7.7980    9.4870   19.8520 C.3     1  UNL1       -0.0497
     22 C           5.9600    0.0520   20.9750 C.3     1  UNL1        0.0491
     23 C           6.8610   -0.6370   22.0150 C.ar    1  UNL1       -0.0243
     24 C           7.4640   -1.9910   21.8530 C.ar    1  UNL1       -0.0566
     25 C           8.3110   -2.5330   22.9190 C.ar    1  UNL1       -0.0580
     26 C           8.5600   -1.7510   24.1340 C.ar    1  UNL1       -0.0199
     27 C           7.9900   -0.4150   24.3080 C.ar    1  UNL1        0.1204
     28 C           7.1270    0.1310   23.2460 C.ar    1  UNL1       -0.0151
     29 O           8.3850    0.2410   25.4720 O.3     1  UNL1       -0.4951
     30 C           9.6840    0.0820   26.0740 C.3     1  UNL1        0.0788
     31 H           4.5360   -4.4085   18.1361 H       1  UNL1        0.0618
     32 H           4.8540   -2.6745   20.0182 H       1  UNL1        0.0638
     33 H           6.6249   -1.6883   15.2788 H       1  UNL1        0.0624
     34 H           5.3694   -3.8834   15.7514 H       1  UNL1        0.0618
     35 H           7.6682    0.8449   16.6186 H       1  UNL1        0.0646
     36 H           5.6500    2.8843   19.4601 H       1  UNL1        0.1493
     37 H           8.4608    3.8660   19.8479 H       1  UNL1        0.0499
     38 H           7.7023    4.7564   17.6937 H       1  UNL1        0.0295
     39 H           6.2454    5.4768   18.5139 H       1  UNL1        0.0295
     40 H           9.1655    6.2620   18.9370 H       1  UNL1        0.0427
     41 H           7.8703    7.2273   18.1270 H       1  UNL1        0.0427
     42 H           8.7065    5.8330   21.6352 H       1  UNL1        0.0427
     43 H           7.1901    6.5883   22.2510 H       1  UNL1        0.0427
     44 H           5.8345    5.1281   20.8505 H       1  UNL1        0.0295
     45 H           7.0017    4.1335   21.8358 H       1  UNL1        0.0295
     46 H           9.4757    8.1106   20.0190 H       1  UNL1        0.0457
     47 H           8.1618    7.9851   22.5884 H       1  UNL1        0.0245
     48 H           9.8641    8.3520   22.1478 H       1  UNL1        0.0245
     49 H           8.6342    9.6612   22.1478 H       1  UNL1        0.0245
     50 H           7.4094   10.1468   20.6417 H       1  UNL1        0.0245
     51 H           8.5125   10.0436   19.2278 H       1  UNL1        0.0245
     52 H           6.9647    9.1321   19.2278 H       1  UNL1        0.0245
     53 H           5.9815    1.1290   21.1977 H       1  UNL1        0.0541
     54 H           4.9953   -0.4640   21.0894 H       1  UNL1        0.0541
     55 H           7.2749   -2.5776   20.9419 H       1  UNL1        0.0621
     56 H           8.7616   -3.5302   22.8072 H       1  UNL1        0.0619
     57 H           9.1878   -2.1773   24.9304 H       1  UNL1        0.0654
     58 H           6.6746    1.1256   23.3729 H       1  UNL1        0.0657
     59 H           9.5844    0.0942   27.1694 H       1  UNL1        0.0660
     60 H          10.1206   -0.8763   25.7561 H       1  UNL1        0.0660
     61 H          10.3389    0.9067   25.7561 H       1  UNL1        0.0660
@<TRIPOS>BOND
     1     2     1   ar
     2     3     2   ar
     3     4     3   ar
     4     5     4   ar
     5     6     1   ar
     6     6     5   ar
     7     7     3   ar
     8     8     7   ar
     9     9     8   ar
    10     9     4   ar
    11    10     8    1
    12    11    10   am
    13    12    10    2
    14    13    11    1
    15    14    13    1
    16    15    14    1
    17    16    15    1
    18    17    16    1
    19    18    13    1
    20    18    17    1
    21    19    16    1
    22    20    19    1
    23    21    19    1
    24    22     7    1
    25    23    22    1
    26    24    23   ar
    27    25    24   ar
    28    26    25   ar
    29    27    26   ar
    30    28    27   ar
    31    28    23   ar
    32    29    27    1
    33    30    29    1
    34     1    31    1
    35     2    32    1
    36     5    33    1
    37     6    34    1
    38     9    35    1
    39    11    36    1
    40    13    37    1
    41    14    38    1
    42    14    39    1
    43    15    40    1
    44    15    41    1
    45    17    42    1
    46    17    43    1
    47    18    44    1
    48    18    45    1
    49    19    46    1
    50    20    47    1
    51    20    48    1
    52    20    49    1
    53    21    50    1
    54    21    51    1
    55    21    52    1
    56    22    53    1
    57    22    54    1
    58    24    55    1
    59    25    56    1
    60    26    57    1
    61    28    58    1
    62    30    59    1
    63    30    60    1
    64    30    61    1
