IID
 OpenBabel06022215153D

 61 64  0  0  0  0  0  0  0  0999 V2000
    5.0430   -3.4550   17.9270 C   0  0  0  0  0  0  0  0  0  0  0  0
    5.2330   -2.4650   19.0070 C   0  0  0  0  0  0  0  0  0  0  0  0
    5.9340   -1.1900   18.7280 C   0  0  0  0  0  0  0  0  0  0  0  0
    6.4750   -0.9100   17.3670 C   0  0  0  0  0  0  0  0  0  0  0  0
    6.2530   -1.8960   16.2930 C   0  0  0  0  0  0  0  0  0  0  0  0
    5.5360   -3.1610   16.5640 C   0  0  0  0  0  0  0  0  0  0  0  0
    6.2640   -0.0960   19.5190 N   0  0  0  0  0  0  0  0  0  0  0  0
    6.9720    0.7730   18.7600 C   0  0  0  0  0  0  0  0  0  0  0  0
    7.1360    0.3300   17.4320 C   0  0  0  0  0  0  0  0  0  0  0  0
    7.5300    1.9460   19.2450 C   0  0  0  0  0  0  0  0  0  0  0  0
    6.6770    2.9620   19.4740 N   0  0  0  0  0  0  0  0  0  0  0  0
    8.7440    2.0310   19.4340 O   0  0  0  0  0  0  0  0  0  0  0  0
    7.4110    4.1770   19.7420 C   0  0  0  0  0  0  0  0  0  0  0  0
    7.3060    5.2040   18.6170 C   0  0  0  0  0  0  0  0  0  0  0  0
    8.0900    6.4920   18.9150 C   0  0  0  0  0  0  0  0  0  0  0  0
    7.6830    7.0740   20.2430 N   0  0  0  0  0  0  0  0  0  0  0  0
    7.6720    6.1110   21.3850 C   0  0  0  0  0  0  0  0  0  0  0  0
    6.8870    4.8510   21.0100 C   0  0  0  0  0  0  0  0  0  0  0  0
    8.4970    8.3000   20.4840 C   0  0  0  0  0  0  0  0  0  0  0  0
    8.8110    8.5950   21.9430 C   0  0  0  0  0  0  0  0  0  0  0  0
    7.7980    9.4870   19.8520 C   0  0  0  0  0  0  0  0  0  0  0  0
    5.9600    0.0520   20.9750 C   0  0  0  0  0  0  0  0  0  0  0  0
    6.8610   -0.6370   22.0150 C   0  0  0  0  0  0  0  0  0  0  0  0
    7.4640   -1.9910   21.8530 C   0  0  0  0  0  0  0  0  0  0  0  0
    8.3110   -2.5330   22.9190 C   0  0  0  0  0  0  0  0  0  0  0  0
    8.5600   -1.7510   24.1340 C   0  0  0  0  0  0  0  0  0  0  0  0
    7.9900   -0.4150   24.3080 C   0  0  0  0  0  0  0  0  0  0  0  0
    7.1270    0.1310   23.2460 C   0  0  0  0  0  0  0  0  0  0  0  0
    8.3850    0.2410   25.4720 O   0  0  0  0  0  0  0  0  0  0  0  0
    9.6840    0.0820   26.0740 C   0  0  0  0  0  0  0  0  0  0  0  0
    4.5360   -4.4085   18.1361 H   0  0  0  0  0  0  0  0  0  0  0  0
    4.8540   -2.6745   20.0182 H   0  0  0  0  0  0  0  0  0  0  0  0
    6.6249   -1.6883   15.2788 H   0  0  0  0  0  0  0  0  0  0  0  0
    5.3694   -3.8834   15.7514 H   0  0  0  0  0  0  0  0  0  0  0  0
    7.6682    0.8449   16.6186 H   0  0  0  0  0  0  0  0  0  0  0  0
    5.6500    2.8843   19.4601 H   0  0  0  0  0  0  0  0  0  0  0  0
    8.4608    3.8660   19.8479 H   0  0  0  0  0  0  0  0  0  0  0  0
    7.7023    4.7564   17.6937 H   0  0  0  0  0  0  0  0  0  0  0  0
    6.2454    5.4768   18.5139 H   0  0  0  0  0  0  0  0  0  0  0  0
    9.1655    6.2620   18.9370 H   0  0  0  0  0  0  0  0  0  0  0  0
    7.8703    7.2273   18.1270 H   0  0  0  0  0  0  0  0  0  0  0  0
    8.7065    5.8330   21.6352 H   0  0  0  0  0  0  0  0  0  0  0  0
    7.1901    6.5883   22.2510 H   0  0  0  0  0  0  0  0  0  0  0  0
    5.8345    5.1281   20.8505 H   0  0  0  0  0  0  0  0  0  0  0  0
    7.0017    4.1335   21.8358 H   0  0  0  0  0  0  0  0  0  0  0  0
    9.4757    8.1106   20.0190 H   0  0  0  0  0  0  0  0  0  0  0  0
    8.1618    7.9851   22.5884 H   0  0  0  0  0  0  0  0  0  0  0  0
    9.8641    8.3520   22.1478 H   0  0  0  0  0  0  0  0  0  0  0  0
    8.6342    9.6612   22.1478 H   0  0  0  0  0  0  0  0  0  0  0  0
    7.4094   10.1468   20.6417 H   0  0  0  0  0  0  0  0  0  0  0  0
    8.5125   10.0436   19.2278 H   0  0  0  0  0  0  0  0  0  0  0  0
    6.9647    9.1321   19.2278 H   0  0  0  0  0  0  0  0  0  0  0  0
    5.9815    1.1290   21.1977 H   0  0  0  0  0  0  0  0  0  0  0  0
    4.9953   -0.4640   21.0894 H   0  0  0  0  0  0  0  0  0  0  0  0
    7.2749   -2.5776   20.9419 H   0  0  0  0  0  0  0  0  0  0  0  0
    8.7616   -3.5302   22.8072 H   0  0  0  0  0  0  0  0  0  0  0  0
    9.1878   -2.1773   24.9304 H   0  0  0  0  0  0  0  0  0  0  0  0
    6.6746    1.1256   23.3729 H   0  0  0  0  0  0  0  0  0  0  0  0
    9.5844    0.0942   27.1694 H   0  0  0  0  0  0  0  0  0  0  0  0
   10.1206   -0.8763   25.7561 H   0  0  0  0  0  0  0  0  0  0  0  0
   10.3389    0.9067   25.7561 H   0  0  0  0  0  0  0  0  0  0  0  0
  1 31  1  0  0  0  0
  2  1  2  0  0  0  0
  2 32  1  0  0  0  0
  3  2  1  0  0  0  0
  4  3  2  0  0  0  0
  5  4  1  0  0  0  0
  5 33  1  0  0  0  0
  6  1  1  0  0  0  0
  6  5  2  0  0  0  0
  6 34  1  0  0  0  0
  7  3  1  0  0  0  0
  8  7  1  0  0  0  0
  9  8  2  0  0  0  0
  9  4  1  0  0  0  0
  9 35  1  0  0  0  0
 10  8  1  0  0  0  0
 11 10  1  0  0  0  0
 11 36  1  0  0  0  0
 12 10  2  0  0  0  0
 13 11  1  0  0  0  0
 13 37  1  0  0  0  0
 14 13  1  0  0  0  0
 14 38  1  0  0  0  0
 14 39  1  0  0  0  0
 15 14  1  0  0  0  0
 15 40  1  0  0  0  0
 15 41  1  0  0  0  0
 16 15  1  0  0  0  0
 17 16  1  0  0  0  0
 17 42  1  0  0  0  0
 17 43  1  0  0  0  0
 18 13  1  0  0  0  0
 18 17  1  0  0  0  0
 18 44  1  0  0  0  0
 18 45  1  0  0  0  0
 19 16  1  0  0  0  0
 19 46  1  0  0  0  0
 20 19  1  0  0  0  0
 20 47  1  0  0  0  0
 20 48  1  0  0  0  0
 20 49  1  0  0  0  0
 21 19  1  0  0  0  0
 21 50  1  0  0  0  0
 21 51  1  0  0  0  0
 21 52  1  0  0  0  0
 22  7  1  0  0  0  0
 22 53  1  0  0  0  0
 22 54  1  0  0  0  0
 23 22  1  0  0  0  0
 24 23  2  0  0  0  0
 24 55  1  0  0  0  0
 25 24  1  0  0  0  0
 25 56  1  0  0  0  0
 26 25  2  0  0  0  0
 26 57  1  0  0  0  0
 27 26  1  0  0  0  0
 28 27  2  0  0  0  0
 28 23  1  0  0  0  0
 28 58  1  0  0  0  0
 29 27  1  0  0  0  0
 30 29  1  0  0  0  0
 30 59  1  0  0  0  0
 30 60  1  0  0  0  0
 30 61  1  0  0  0  0
M  END
$$$$
