@<TRIPOS>MOLECULE
IIA
 60 64 0 0 0
SMALL
GASTEIGER

@<TRIPOS>ATOM
      1 C           6.8720    8.2610   13.3740 C.ar    1  UNL1       -0.0598
      2 C           6.1820    8.3360   14.6800 C.ar    1  UNL1       -0.0376
      3 C           6.7270    9.0980   15.8350 C.ar    1  UNL1        0.0500
      4 C           8.0350    9.7890   15.6300 C.ar    1  UNL1        0.0006
      5 C           8.7300    9.7140   14.3440 C.ar    1  UNL1       -0.0526
      6 C           8.1540    8.9570   13.2240 C.ar    1  UNL1       -0.0611
      7 N           6.3510    9.3940   17.1790 N.ar    1  UNL1       -0.3302
      8 C           7.3290   10.1280   17.7080 C.ar    1  UNL1        0.1057
      9 C           8.3690   10.4220   16.8200 C.ar    1  UNL1       -0.0239
     10 C           5.1840    9.0920   18.0350 C.3     1  UNL1        0.0693
     11 C           5.2830    7.8180   18.8350 C.ar    1  UNL1        0.1038
     12 N           5.0950    7.8290   20.1590 N.ar    1  UNL1       -0.0808
     13 O           5.3690    6.5350   20.6180 O.2     1  UNL1       -0.3538
     14 C           5.6920    5.7760   19.5310 C.ar    1  UNL1        0.1741
     15 C           5.5610    6.4970   18.2910 C.ar    1  UNL1        0.0106
     16 C           6.2450    4.4400   19.6600 C.ar    1  UNL1        0.0585
     17 S           5.6440    3.4170   18.4210 S.2     1  UNL1       -0.0736
     18 C           6.6010    2.0930   19.0970 C.ar    1  UNL1        0.0787
     19 CL          6.5050    0.5920   18.3190 Cl      1  UNL1       -0.0758
     20 C           7.2850    2.4160   20.2050 C.ar    1  UNL1       -0.0355
     21 C           7.0480    3.8160   20.5510 C.ar    1  UNL1       -0.0424
     22 C           7.4830   10.4540   19.0290 C.2     1  UNL1        0.2608
     23 N           8.3170    9.6250   19.6220 N.am    1  UNL1       -0.3072
     24 O           6.9060   11.3930   19.5810 O.2     1  UNL1       -0.2686
     25 C           8.2050    9.5880   21.0290 C.3     1  UNL1        0.0258
     26 C           8.4660    8.1610   21.4950 C.3     1  UNL1       -0.0216
     27 C           8.4560    8.0250   23.0150 C.3     1  UNL1        0.0008
     28 N           9.4690    8.9870   23.5780 N.3     1  UNL1       -0.2998
     29 C           9.2320   10.4130   23.2030 C.3     1  UNL1        0.0008
     30 C           9.2380   10.5060   21.6780 C.3     1  UNL1       -0.0216
     31 C           9.6180    8.8180   25.0450 C.3     1  UNL1        0.0048
     32 C          11.0330    8.4360   25.4390 C.3     1  UNL1       -0.0497
     33 C           8.6700    7.7380   25.4980 C.3     1  UNL1       -0.0497
     34 H           6.4347    7.6975   12.5366 H       1  UNL1        0.0618
     35 H           5.2258    7.8061   14.8021 H       1  UNL1        0.0638
     36 H           9.6931   10.2295   14.2147 H       1  UNL1        0.0624
     37 H           8.6894    8.9120   12.2642 H       1  UNL1        0.0618
     38 H           9.2644   11.0281   17.0221 H       1  UNL1        0.0646
     39 H           5.0548    9.9265   18.7399 H       1  UNL1        0.0558
     40 H           4.3330    8.9560   17.3514 H       1  UNL1        0.0558
     41 H           5.6454    6.1536   17.2494 H       1  UNL1        0.0675
     42 H           7.9301    1.7275   20.7706 H       1  UNL1        0.0638
     43 H           7.4753    4.3073   21.4376 H       1  UNL1        0.0630
     44 H           8.9955    9.0506   19.1019 H       1  UNL1        0.1493
     45 H           7.1980    9.9237   21.3174 H       1  UNL1        0.0499
     46 H           7.6860    7.5068   21.0783 H       1  UNL1        0.0295
     47 H           9.4683    7.8754   21.1432 H       1  UNL1        0.0295
     48 H           7.4560    8.2666   23.4043 H       1  UNL1        0.0427
     49 H           8.7062    6.9944   23.3069 H       1  UNL1        0.0427
     50 H           8.2588   10.7452   23.5937 H       1  UNL1        0.0427
     51 H          10.0164   11.0561   23.6287 H       1  UNL1        0.0427
     52 H          10.2369   10.2263   21.3121 H       1  UNL1        0.0295
     53 H           8.9810   11.5406   21.4066 H       1  UNL1        0.0295
     54 H           9.3897    9.7801   25.5270 H       1  UNL1        0.0457
     55 H          11.1149    8.4139   26.5357 H       1  UNL1        0.0245
     56 H          11.2707    7.4415   25.0334 H       1  UNL1        0.0245
     57 H          11.7389    9.1757   25.0334 H       1  UNL1        0.0245
     58 H           8.6450    7.7095   26.5973 H       1  UNL1        0.0245
     59 H           7.6615    7.9505   25.1137 H       1  UNL1        0.0245
     60 H           9.0115    6.7655   25.1137 H       1  UNL1        0.0245
@<TRIPOS>BOND
     1     2     1   ar
     2     3     2   ar
     3     4     3   ar
     4     5     4   ar
     5     6     5   ar
     6     6     1   ar
     7     7     3   ar
     8     8     7   ar
     9     9     4   ar
    10     9     8   ar
    11    10     7    1
    12    11    10    1
    13    12    11   ar
    14    13    12   ar
    15    14    13   ar
    16    15    11   ar
    17    15    14   ar
    18    16    14    1
    19    17    16   ar
    20    18    17   ar
    21    19    18    1
    22    20    18   ar
    23    21    20   ar
    24    21    16   ar
    25    22     8    1
    26    23    22   am
    27    24    22    2
    28    25    23    1
    29    26    25    1
    30    27    26    1
    31    28    27    1
    32    29    28    1
    33    30    25    1
    34    30    29    1
    35    31    28    1
    36    32    31    1
    37    33    31    1
    38     1    34    1
    39     2    35    1
    40     5    36    1
    41     6    37    1
    42     9    38    1
    43    10    39    1
    44    10    40    1
    45    15    41    1
    46    20    42    1
    47    21    43    1
    48    23    44    1
    49    25    45    1
    50    26    46    1
    51    26    47    1
    52    27    48    1
    53    27    49    1
    54    29    50    1
    55    29    51    1
    56    30    52    1
    57    30    53    1
    58    31    54    1
    59    32    55    1
    60    32    56    1
    61    32    57    1
    62    33    58    1
    63    33    59    1
    64    33    60    1
