@<TRIPOS>MOLECULE
L12
 31 33 0 0 0
SMALL
GASTEIGER

@<TRIPOS>ATOM
      1 C          11.4470    4.7860   40.0870 C.ar    1  UNL1       -0.0220
      2 C          12.0260    3.6250   40.4380 C.ar    1  UNL1        0.0059
      3 N          13.3810    3.6820   40.2010 N.ar    1  UNL1       -0.3604
      4 C          12.5950    6.9540   39.0760 C.ar    1  UNL1       -0.0523
      5 C          12.5320    5.6490   39.5830 C.ar    1  UNL1        0.0028
      6 C          13.7310    4.8940   39.6910 C.ar    1  UNL1        0.0467
      7 C          14.9600    5.4360   39.2950 C.ar    1  UNL1       -0.0378
      8 C          14.9860    6.7320   38.7940 C.ar    1  UNL1       -0.0598
      9 C          13.8060    7.4790   38.6880 C.ar    1  UNL1       -0.0611
     10 C           9.9680    5.1080   40.1750 C.3     1  UNL1       -0.0217
     11 C           9.2240    4.2530   41.2130 C.3     1  UNL1       -0.0235
     12 C           7.9900    3.6120   40.6260 C.ar    1  UNL1       -0.0442
     13 C           7.2110    2.7670   41.3990 C.ar    1  UNL1       -0.0404
     14 C           6.0900    2.1760   40.8470 C.ar    1  UNL1        0.0278
     15 N           5.7310    2.3950   39.5900 N.ar    1  UNL1       -0.2632
     16 C           6.4520    3.1980   38.8220 C.ar    1  UNL1        0.0278
     17 C           7.5970    3.8270   39.3060 C.ar    1  UNL1       -0.0404
     18 H          11.4948    2.7561   40.8539 H       1  UNL1        0.0810
     19 H          14.0400    2.9121   40.3847 H       1  UNL1        0.1653
     20 H          11.6790    7.5567   38.9886 H       1  UNL1        0.0624
     21 H          15.8858    4.8480   39.3788 H       1  UNL1        0.0638
     22 H          15.9419    7.1751   38.4779 H       1  UNL1        0.0618
     23 H          13.8482    8.5027   38.2878 H       1  UNL1        0.0618
     24 H           9.8564    6.1673   40.4496 H       1  UNL1        0.0317
     25 H           9.5260    4.8877   39.1921 H       1  UNL1        0.0317
     26 H           9.8989    3.4629   41.5740 H       1  UNL1        0.0316
     27 H           8.9103    4.9101   42.0375 H       1  UNL1        0.0316
     28 H           7.4828    2.5674   42.4460 H       1  UNL1        0.0635
     29 H           5.4786    1.5051   41.4684 H       1  UNL1        0.0829
     30 H           6.1405    3.3717   37.7814 H       1  UNL1        0.0829
     31 H           8.1857    4.4874   38.6523 H       1  UNL1        0.0635
@<TRIPOS>BOND
     1     2     1   ar
     2     3     2   ar
     3     5     1   ar
     4     5     4   ar
     5     6     3   ar
     6     6     5   ar
     7     7     6   ar
     8     8     7   ar
     9     9     8   ar
    10     9     4   ar
    11    10     1    1
    12    11    10    1
    13    12    11    1
    14    13    12   ar
    15    14    13   ar
    16    15    14   ar
    17    16    15   ar
    18    17    16   ar
    19    17    12   ar
    20     2    18    1
    21     3    19    1
    22     4    20    1
    23     7    21    1
    24     8    22    1
    25     9    23    1
    26    10    24    1
    27    10    25    1
    28    11    26    1
    29    11    27    1
    30    13    28    1
    31    14    29    1
    32    16    30    1
    33    17    31    1
