L12
 OpenBabel10022215363D

 31 33  0  0  0  0  0  0  0  0999 V2000
   11.4470    4.7860   40.0870 C   0  0  0  0  0  0  0  0  0  0  0  0
   12.0260    3.6250   40.4380 C   0  0  0  0  0  0  0  0  0  0  0  0
   13.3810    3.6820   40.2010 N   0  0  0  0  0  0  0  0  0  0  0  0
   12.5950    6.9540   39.0760 C   0  0  0  0  0  0  0  0  0  0  0  0
   12.5320    5.6490   39.5830 C   0  0  0  0  0  0  0  0  0  0  0  0
   13.7310    4.8940   39.6910 C   0  0  0  0  0  0  0  0  0  0  0  0
   14.9600    5.4360   39.2950 C   0  0  0  0  0  0  0  0  0  0  0  0
   14.9860    6.7320   38.7940 C   0  0  0  0  0  0  0  0  0  0  0  0
   13.8060    7.4790   38.6880 C   0  0  0  0  0  0  0  0  0  0  0  0
    9.9680    5.1080   40.1750 C   0  0  0  0  0  0  0  0  0  0  0  0
    9.2240    4.2530   41.2130 C   0  0  0  0  0  0  0  0  0  0  0  0
    7.9900    3.6120   40.6260 C   0  0  0  0  0  0  0  0  0  0  0  0
    7.2110    2.7670   41.3990 C   0  0  0  0  0  0  0  0  0  0  0  0
    6.0900    2.1760   40.8470 C   0  0  0  0  0  0  0  0  0  0  0  0
    5.7310    2.3950   39.5900 N   0  0  0  0  0  0  0  0  0  0  0  0
    6.4520    3.1980   38.8220 C   0  0  0  0  0  0  0  0  0  0  0  0
    7.5970    3.8270   39.3060 C   0  0  0  0  0  0  0  0  0  0  0  0
   11.4948    2.7561   40.8539 H   0  0  0  0  0  0  0  0  0  0  0  0
   14.0400    2.9121   40.3847 H   0  0  0  0  0  0  0  0  0  0  0  0
   11.6790    7.5567   38.9886 H   0  0  0  0  0  0  0  0  0  0  0  0
   15.8858    4.8480   39.3788 H   0  0  0  0  0  0  0  0  0  0  0  0
   15.9419    7.1751   38.4779 H   0  0  0  0  0  0  0  0  0  0  0  0
   13.8482    8.5027   38.2878 H   0  0  0  0  0  0  0  0  0  0  0  0
    9.8564    6.1673   40.4496 H   0  0  0  0  0  0  0  0  0  0  0  0
    9.5260    4.8877   39.1921 H   0  0  0  0  0  0  0  0  0  0  0  0
    9.8989    3.4629   41.5740 H   0  0  0  0  0  0  0  0  0  0  0  0
    8.9103    4.9101   42.0375 H   0  0  0  0  0  0  0  0  0  0  0  0
    7.4828    2.5674   42.4460 H   0  0  0  0  0  0  0  0  0  0  0  0
    5.4786    1.5051   41.4684 H   0  0  0  0  0  0  0  0  0  0  0  0
    6.1405    3.3717   37.7814 H   0  0  0  0  0  0  0  0  0  0  0  0
    8.1857    4.4874   38.6523 H   0  0  0  0  0  0  0  0  0  0  0  0
  2  1  2  0  0  0  0
  2 18  1  0  0  0  0
  3  2  1  0  0  0  0
  3 19  1  0  0  0  0
  4 20  1  0  0  0  0
  5  1  1  0  0  0  0
  5  4  2  0  0  0  0
  6  3  1  0  0  0  0
  6  5  1  0  0  0  0
  7  6  2  0  0  0  0
  7 21  1  0  0  0  0
  8  7  1  0  0  0  0
  8 22  1  0  0  0  0
  9  8  2  0  0  0  0
  9  4  1  0  0  0  0
  9 23  1  0  0  0  0
 10  1  1  0  0  0  0
 10 24  1  0  0  0  0
 10 25  1  0  0  0  0
 11 10  1  0  0  0  0
 11 26  1  0  0  0  0
 11 27  1  0  0  0  0
 12 11  1  0  0  0  0
 13 12  2  0  0  0  0
 13 28  1  0  0  0  0
 14 13  1  0  0  0  0
 14 29  1  0  0  0  0
 15 14  2  0  0  0  0
 16 15  1  0  0  0  0
 16 30  1  0  0  0  0
 17 16  2  0  0  0  0
 17 12  1  0  0  0  0
 17 31  1  0  0  0  0
M  END
$$$$
