@<TRIPOS>MOLECULE
170
 54 57 0 0 0
SMALL
GASTEIGER

@<TRIPOS>ATOM
      1 CL         18.9200  -18.8250   18.8870 Cl      1  UNL1       -0.0621
      2 N          20.8970  -17.5700   22.1590 N.ar    1  UNL1       -0.2325
      3 C          20.2840  -18.2180   23.2720 C.ar    1  UNL1        0.1846
      4 C          19.1590  -19.1040   22.9210 C.ar    1  UNL1        0.2927
      5 N          18.8150  -19.2740   21.6010 N.ar    1  UNL1       -0.2862
      6 C          19.4330  -18.5970   20.4830 C.ar    1  UNL1        0.1308
      7 C          20.4700  -17.7120   20.8430 C.ar    1  UNL1        0.0650
      8 O          18.5380  -19.6880   23.8040 O.2     1  UNL1       -0.2639
      9 C          17.6870  -20.1640   21.2630 C.3     1  UNL1        0.1038
     10 C          16.3530  -19.5140   21.5960 C.2     1  UNL1        0.2332
     11 N          15.5070  -20.2810   22.2960 N.am    1  UNL1       -0.3097
     12 O          16.1200  -18.3570   21.2610 O.2     1  UNL1       -0.2738
     13 C          14.1960  -19.7320   22.6720 C.3     1  UNL1        0.0389
     14 C          13.6100  -20.4290   23.8930 C.ar    1  UNL1       -0.0035
     15 C          14.4090  -20.4590   25.0900 C.ar    1  UNL1       -0.0367
     16 C          13.8340  -21.1300   26.2240 C.ar    1  UNL1        0.0414
     17 CL         14.7700  -21.1720   27.6980 Cl      1  UNL1       -0.0835
     18 C          12.5340  -21.7510   26.2130 C.ar    1  UNL1       -0.0414
     19 C          11.7390  -21.7160   25.0240 C.ar    1  UNL1       -0.0345
     20 C          12.3170  -21.0450   23.8710 C.ar    1  UNL1        0.0735
     21 N          11.6420  -21.1420   22.6900 N.ar    1  UNL1       -0.2000
     22 N          11.5850  -22.0040   21.8350 N.ar    1  UNL1       -0.0392
     23 N          10.7900  -21.7870   20.8710 N.ar    1  UNL1       -0.0230
     24 N          10.2210  -20.7090   20.9690 N.ar    1  UNL1       -0.1165
     25 C          10.7630  -20.1520   22.1710 C.ar    1  UNL1        0.1437
     26 N          20.6630  -17.9990   24.6240 N.pl3   1  UNL1       -0.3185
     27 C          19.9590  -16.9400   25.3690 C.3     1  UNL1        0.0845
     28 C          20.8780  -15.7930   25.7440 C.3     1  UNL1        0.3467
     29 F          21.0310  -15.1110   24.5970 F       1  UNL1       -0.1920
     30 F          22.0780  -16.2800   26.1010 F       1  UNL1       -0.1920
     31 C          20.2650  -14.8980   26.8220 C.ar    1  UNL1        0.2663
     32 N          21.0630  -13.8760   27.3500 N.ar    1  UNL1       -0.1695
     33 O          22.3480  -13.7990   26.9440 O.co2   1  UNL1       -0.6195
     34 C          20.6360  -12.9170   28.2550 C.ar    1  UNL1        0.1833
     35 C          19.2690  -12.9920   28.6840 C.ar    1  UNL1        0.0034
     36 C          18.4150  -14.0460   28.1720 C.ar    1  UNL1       -0.0500
     37 C          18.8770  -15.0190   27.2280 C.ar    1  UNL1        0.0129
     38 H          20.9568  -17.1148   20.0579 H       1  UNL1        0.0860
     39 H          17.7176  -20.3887   20.1866 H       1  UNL1        0.0589
     40 H          17.7820  -21.0861   21.8552 H       1  UNL1        0.0589
     41 H          15.7705  -21.2393   22.5663 H       1  UNL1        0.1491
     42 H          14.3113  -18.6613   22.8964 H       1  UNL1        0.0512
     43 H          13.5080  -19.8920   21.8287 H       1  UNL1        0.0512
     44 H          15.4049  -19.9940   25.1346 H       1  UNL1        0.0636
     45 H          12.1538  -22.2506   27.1162 H       1  UNL1        0.0633
     46 H          10.7398  -22.1742   24.9842 H       1  UNL1        0.0639
     47 H          10.5450  -19.1642   22.6031 H       1  UNL1        0.1067
     48 H          21.4037  -18.5606   25.0677 H       1  UNL1        0.1478
     49 H          19.1430  -16.5496   24.7431 H       1  UNL1        0.0526
     50 H          19.5744  -17.3818   26.3001 H       1  UNL1        0.0526
     51 H          21.3138  -12.1346   28.6271 H       1  UNL1        0.1389
     52 H          18.8713  -12.2546   29.3968 H       1  UNL1        0.0677
     53 H          17.3735  -14.1003   28.5216 H       1  UNL1        0.0621
     54 H          18.2203  -15.8092   26.8350 H       1  UNL1        0.0682
@<TRIPOS>UNITY_ATOM_ATTR
32 1
charge 1
33 1
charge -1
@<TRIPOS>BOND
     1     3     2   ar
     2     4     3   ar
     3     5     4   ar
     4     6     5   ar
     5     6     1    1
     6     7     6   ar
     7     7     2   ar
     8     8     4    2
     9     9     5    1
    10    10     9    1
    11    11    10   am
    12    12    10    2
    13    13    11    1
    14    14    13    1
    15    15    14   ar
    16    16    15   ar
    17    17    16    1
    18    18    16   ar
    19    19    18   ar
    20    20    19   ar
    21    20    14   ar
    22    21    20    1
    23    22    21   ar
    24    23    22   ar
    25    24    23   ar
    26    25    24   ar
    27    25    21   ar
    28    26     3    1
    29    27    26    1
    30    28    27    1
    31    29    28    1
    32    30    28    1
    33    31    28    1
    34    32    31   ar
    35    33    32    1
    36    34    32   ar
    37    35    34   ar
    38    36    35   ar
    39    37    31   ar
    40    37    36   ar
    41     7    38    1
    42     9    39    1
    43     9    40    1
    44    11    41    1
    45    13    42    1
    46    13    43    1
    47    15    44    1
    48    18    45    1
    49    19    46    1
    50    25    47    1
    51    26    48    1
    52    27    49    1
    53    27    50    1
    54    34    51    1
    55    35    52    1
    56    36    53    1
    57    37    54    1
