@<TRIPOS>MOLECULE
5T8
 45 48 0 0 0
SMALL
GASTEIGER

@<TRIPOS>ATOM
      1 C           6.3810    1.5720    0.3610 C.3     1  LIG1        0.1497
      2 C           5.4060   -0.6030    0.3650 C.3     1  LIG1        0.0998
      3 C           1.8560   -2.5720    1.2420 C.ar    1  LIG1       -0.0596
      4 C           0.6440   -1.9230    1.1130 C.ar    1  LIG1       -0.0405
      5 C           1.7410   -0.1180   -0.0380 C.ar    1  LIG1       -0.0329
      6 C           4.3940   -0.6250   -1.9180 C.3     1  LIG1       -0.0106
      7 C          -1.6900   -2.0720   -0.3810 C.ar    1  LIG1       -0.0384
      8 C          -3.0520   -0.1220    0.0100 C.ar    1  LIG1        0.0921
      9 C          -4.1970   -0.8740   -0.3500 C.ar    1  LIG1        0.0036
     10 C          -5.4580   -0.2490   -0.3280 C.ar    1  LIG1       -0.0327
     11 C          -4.3530    1.7460    0.3850 C.ar    1  LIG1        0.0466
     12 C           4.2040   -0.1610   -0.4730 C.3     1  LIG1        0.1971
     13 N           4.0840    1.2940   -0.4430 N.2     1  LIG1       -0.0720
     14 C           5.0360    2.0720   -0.0830 C.2     1  LIG1        0.3057
     15 O           6.5360    0.1980   -0.0050 O.3     1  LIG1       -0.3627
     16 C           0.5820   -0.6920    0.4710 C.ar    1  LIG1        0.0318
     17 C           2.9490   -0.7760    0.0900 C.ar    1  LIG1        0.0075
     18 C           3.0070   -1.9990    0.7330 C.ar    1  LIG1       -0.0540
     19 N           4.8160    3.4240   -0.1030 N.pl3   1  LIG1       -0.2487
     20 N          -0.6420   -0.0320    0.3380 N.pl3   1  LIG1       -0.3128
     21 C          -1.7860   -0.7480   -0.0120 C.ar    1  LIG1        0.0576
     22 C          -2.8230   -2.7970   -0.7380 C.ar    1  LIG1       -0.0593
     23 C          -4.0560   -2.2200   -0.7260 C.ar    1  LIG1       -0.0524
     24 C          -5.5200    1.0650    0.0430 C.ar    1  LIG1        0.0596
     25 N          -3.1810    1.1590    0.3620 N.ar    1  LIG1       -0.2517
     26 CL         -7.0500    1.8840    0.0880 Cl      1  LIG1       -0.0820
     27 H           7.1630    2.1640   -0.1160 H       1  LIG1        0.0686
     28 H           6.4640    1.6700    1.4430 H       1  LIG1        0.0686
     29 H           5.1880   -0.4620    1.4240 H       1  LIG1        0.0610
     30 H           5.6220   -1.6540    0.1720 H       1  LIG1        0.0610
     31 H           1.9050   -3.5270    1.7440 H       1  LIG1        0.0618
     32 H          -0.2550   -2.3710    1.5100 H       1  LIG1        0.0636
     33 H           1.6960    0.8360   -0.5410 H       1  LIG1        0.0640
     34 H           4.4750   -1.7120   -1.9430 H       1  LIG1        0.0279
     35 H           3.5390   -0.3110   -2.5160 H       1  LIG1        0.0279
     36 H           5.3040   -0.1840   -2.3250 H       1  LIG1        0.0279
     37 H          -0.7220   -2.5520   -0.3980 H       1  LIG1        0.0637
     38 H          -6.3510   -0.7930   -0.5970 H       1  LIG1        0.0639
     39 H          -4.4160    2.7840    0.6750 H       1  LIG1        0.0844
     40 H           3.9540   -2.5070    0.8400 H       1  LIG1        0.0622
     41 H           3.9560    3.7720   -0.3850 H       1  LIG1        0.2881
     42 H           5.5220    4.0340    0.1650 H       1  LIG1        0.2881
     43 H          -0.6960    0.9250    0.4900 H       1  LIG1        0.1522
     44 H          -2.7230   -3.8330   -1.0270 H       1  LIG1        0.0618
     45 H          -4.9260   -2.7980   -1.0020 H       1  LIG1        0.0624
@<TRIPOS>BOND
     1    24    26    1
     2    11    24   ar
     3    10    24   ar
     4    11    25   ar
     5     9    10   ar
     6     8    25   ar
     7     8     9   ar
     8     9    23   ar
     9     8    21   ar
    10    22    23   ar
    11    20    21    1
    12     7    21   ar
    13     7    22   ar
    14    16    20    1
    15    14    19    1
    16     5    16   ar
    17     4    16   ar
    18     5    17   ar
    19    13    14    2
    20     1    14    1
    21     3     4   ar
    22    12    13    1
    23     1    15    1
    24    12    17    1
    25    17    18   ar
    26     3    18   ar
    27     6    12    1
    28     2    12    1
    29     2    15    1
    30     1    27    1
    31     1    28    1
    32     2    29    1
    33     2    30    1
    34     3    31    1
    35     4    32    1
    36     5    33    1
    37     6    34    1
    38     6    35    1
    39     6    36    1
    40     7    37    1
    41    10    38    1
    42    11    39    1
    43    18    40    1
    44    19    41    1
    45    19    42    1
    46    20    43    1
    47    22    44    1
    48    23    45    1
