5T8
  Mrv15b2303062314122D          

 26 29  0  0  0  0            999 V2000
   -3.2771    0.6661    0.0000 C   0  0  0  0  0  0  0  0  0  0  0  0
   -2.1825   -0.2524    0.0000 C   0  0  0  0  0  0  0  0  0  0  0  0
   -0.2232    2.0296    0.0000 C   0  0  0  0  0  0  0  0  0  0  0  0
    0.4913    1.6171    0.0000 C   0  0  0  0  0  0  0  0  0  0  0  0
   -0.2232    0.3796    0.0000 C   0  0  0  0  0  0  0  0  0  0  0  0
   -1.1219   -0.2524    0.0000 C   0  0  0  0  0  0  0  0  0  0  0  0
    0.4913   -0.8579    0.0000 C   0  0  0  0  0  0  0  0  0  0  0  0
    1.9202   -0.8579    0.0000 C   0  0  0  0  0  0  0  0  0  0  0  0
    1.9202   -1.6829    0.0000 C   0  0  0  0  0  0  0  0  0  0  0  0
    2.6347   -2.0954    0.0000 C   0  0  0  0  0  0  0  0  0  0  0  0
    3.3491   -0.8579    0.0000 C   0  0  0  0  0  0  0  0  0  0  0  0
   -1.6522    0.3796    0.0000 C   0  0  2  0  0  0  0  0  0  0  0  0
   -1.9343    1.1549    0.0000 N   0  0  0  0  0  0  0  0  0  0  0  0
   -2.7468    1.2981    0.0000 C   0  0  0  0  0  0  0  0  0  0  0  0
   -2.9949   -0.1091    0.0000 O   0  0  0  0  0  0  0  0  0  0  0  0
    0.4913    0.7921    0.0000 C   0  0  0  0  0  0  0  0  0  0  0  0
   -0.9377    0.7921    0.0000 C   0  0  0  0  0  0  0  0  0  0  0  0
   -0.9377    1.6171    0.0000 C   0  0  0  0  0  0  0  0  0  0  0  0
   -3.0290    2.0734    0.0000 N   0  0  0  0  0  0  0  0  0  0  0  0
    1.2057    0.3796    0.0000 N   0  0  0  0  0  0  0  0  0  0  0  0
    1.2057   -0.4454    0.0000 C   0  0  0  0  0  0  0  0  0  0  0  0
    0.4913   -1.6829    0.0000 C   0  0  0  0  0  0  0  0  0  0  0  0
    1.2057   -2.0954    0.0000 C   0  0  0  0  0  0  0  0  0  0  0  0
    3.3491   -1.6829    0.0000 C   0  0  0  0  0  0  0  0  0  0  0  0
    2.6347   -0.4454    0.0000 N   0  0  0  0  0  0  0  0  0  0  0  0
    4.0636   -2.0954    0.0000 Cl  0  0  0  0  0  0  0  0  0  0  0  0
 24 26  1  0  0  0  0
 11 24  4  0  0  0  0
 10 24  4  0  0  0  0
 11 25  4  0  0  0  0
  9 10  4  0  0  0  0
  8 25  4  0  0  0  0
  8  9  4  0  0  0  0
  9 23  4  0  0  0  0
  8 21  4  0  0  0  0
 22 23  4  0  0  0  0
 20 21  1  0  0  0  0
  7 21  4  0  0  0  0
  7 22  4  0  0  0  0
 16 20  1  0  0  0  0
 14 19  1  0  0  0  0
  5 16  4  0  0  0  0
  4 16  4  0  0  0  0
  5 17  4  0  0  0  0
 13 14  2  0  0  0  0
  1 14  1  0  0  0  0
  3  4  4  0  0  0  0
 12 13  1  0  0  0  0
  1 15  1  0  0  0  0
 12 17  1  6  0  0  0
 17 18  4  0  0  0  0
  3 18  4  0  0  0  0
 12  6  1  1  0  0  0
  2 12  1  0  0  0  0
  2 15  1  0  0  0  0
M  END
