5T8
  -OEChem-02242319223D

 45 48  0     1  0  0  0  0  0999 V2000
    6.3810    1.5720    0.3610 C   0  0  0  0  0  0  0  0  0  0  0  0
    5.4060   -0.6030    0.3650 C   0  0  0  0  0  0  0  0  0  0  0  0
    1.8560   -2.5720    1.2420 C   0  0  0  0  0  0  0  0  0  0  0  0
    0.6440   -1.9230    1.1130 C   0  0  0  0  0  0  0  0  0  0  0  0
    1.7410   -0.1180   -0.0380 C   0  0  0  0  0  0  0  0  0  0  0  0
    4.3940   -0.6250   -1.9180 C   0  0  0  0  0  0  0  0  0  0  0  0
   -1.6900   -2.0720   -0.3810 C   0  0  0  0  0  0  0  0  0  0  0  0
   -3.0520   -0.1220    0.0100 C   0  0  0  0  0  0  0  0  0  0  0  0
   -4.1970   -0.8740   -0.3500 C   0  0  0  0  0  0  0  0  0  0  0  0
   -5.4580   -0.2490   -0.3280 C   0  0  0  0  0  0  0  0  0  0  0  0
   -4.3530    1.7460    0.3850 C   0  0  0  0  0  0  0  0  0  0  0  0
    4.2040   -0.1610   -0.4730 C   0  0  2  0  0  0  0  0  0  0  0  0
    4.0840    1.2940   -0.4430 N   0  0  0  0  0  0  0  0  0  0  0  0
    5.0360    2.0720   -0.0830 C   0  0  0  0  0  0  0  0  0  0  0  0
    6.5360    0.1980   -0.0050 O   0  0  0  0  0  0  0  0  0  0  0  0
    0.5820   -0.6920    0.4710 C   0  0  0  0  0  0  0  0  0  0  0  0
    2.9490   -0.7760    0.0900 C   0  0  0  0  0  0  0  0  0  0  0  0
    3.0070   -1.9990    0.7330 C   0  0  0  0  0  0  0  0  0  0  0  0
    4.8160    3.4240   -0.1030 N   0  0  0  0  0  0  0  0  0  0  0  0
   -0.6420   -0.0320    0.3380 N   0  0  0  0  0  0  0  0  0  0  0  0
   -1.7860   -0.7480   -0.0120 C   0  0  0  0  0  0  0  0  0  0  0  0
   -2.8230   -2.7970   -0.7380 C   0  0  0  0  0  0  0  0  0  0  0  0
   -4.0560   -2.2200   -0.7260 C   0  0  0  0  0  0  0  0  0  0  0  0
   -5.5200    1.0650    0.0430 C   0  0  0  0  0  0  0  0  0  0  0  0
   -3.1810    1.1590    0.3620 N   0  0  0  0  0  0  0  0  0  0  0  0
   -7.0500    1.8840    0.0880 Cl  0  0  0  0  0  0  0  0  0  0  0  0
    7.1630    2.1640   -0.1160 H   0  0  0  0  0  0  0  0  0  0  0  0
    6.4640    1.6700    1.4430 H   0  0  0  0  0  0  0  0  0  0  0  0
    5.1880   -0.4620    1.4240 H   0  0  0  0  0  0  0  0  0  0  0  0
    5.6220   -1.6540    0.1720 H   0  0  0  0  0  0  0  0  0  0  0  0
    1.9050   -3.5270    1.7440 H   0  0  0  0  0  0  0  0  0  0  0  0
   -0.2550   -2.3710    1.5100 H   0  0  0  0  0  0  0  0  0  0  0  0
    1.6960    0.8360   -0.5410 H   0  0  0  0  0  0  0  0  0  0  0  0
    4.4750   -1.7120   -1.9430 H   0  0  0  0  0  0  0  0  0  0  0  0
    3.5390   -0.3110   -2.5160 H   0  0  0  0  0  0  0  0  0  0  0  0
    5.3040   -0.1840   -2.3250 H   0  0  0  0  0  0  0  0  0  0  0  0
   -0.7220   -2.5520   -0.3980 H   0  0  0  0  0  0  0  0  0  0  0  0
   -6.3510   -0.7930   -0.5970 H   0  0  0  0  0  0  0  0  0  0  0  0
   -4.4160    2.7840    0.6750 H   0  0  0  0  0  0  0  0  0  0  0  0
    3.9540   -2.5070    0.8400 H   0  0  0  0  0  0  0  0  0  0  0  0
    3.9560    3.7720   -0.3850 H   0  0  0  0  0  0  0  0  0  0  0  0
    5.5220    4.0340    0.1650 H   0  0  0  0  0  0  0  0  0  0  0  0
   -0.6960    0.9250    0.4900 H   0  0  0  0  0  0  0  0  0  0  0  0
   -2.7230   -3.8330   -1.0270 H   0  0  0  0  0  0  0  0  0  0  0  0
   -4.9260   -2.7980   -1.0020 H   0  0  0  0  0  0  0  0  0  0  0  0
 24 26  1  0  0  0  0
 11 24  2  0  0  0  0
 10 24  1  0  0  0  0
 11 25  1  0  0  0  0
  9 10  2  0  0  0  0
  8 25  2  0  0  0  0
  8  9  1  0  0  0  0
  9 23  1  0  0  0  0
  8 21  1  0  0  0  0
 22 23  2  0  0  0  0
 20 21  1  0  0  0  0
  7 21  2  0  0  0  0
  7 22  1  0  0  0  0
 16 20  1  0  0  0  0
 14 19  1  0  0  0  0
  5 16  2  0  0  0  0
  4 16  1  0  0  0  0
  5 17  1  0  0  0  0
 13 14  2  0  0  0  0
  1 14  1  0  0  0  0
  3  4  2  0  0  0  0
 12 13  1  0  0  0  0
  1 15  1  0  0  0  0
 12 17  1  0  0  0  0
 17 18  2  0  0  0  0
  3 18  1  0  0  0  0
  6 12  1  0  0  0  0
  2 12  1  0  0  0  0
  2 15  1  0  0  0  0
  1 27  1  0  0  0  0
  1 28  1  0  0  0  0
  2 29  1  0  0  0  0
  2 30  1  0  0  0  0
  3 31  1  0  0  0  0
  4 32  1  0  0  0  0
  5 33  1  0  0  0  0
  6 34  1  0  0  0  0
  6 35  1  0  0  0  0
  6 36  1  0  0  0  0
  7 37  1  0  0  0  0
 10 38  1  0  0  0  0
 11 39  1  0  0  0  0
 18 40  1  0  0  0  0
 19 41  1  0  0  0  0
 19 42  1  0  0  0  0
 20 43  1  0  0  0  0
 22 44  1  0  0  0  0
 23 45  1  0  0  0  0
M  END
> <OPENEYE_ISO_SMILES>
C[C@]1(COCC(=N1)N)c2cccc(c2)Nc3cccc4c3ncc(c4)Cl

> <OPENEYE_INCHI>
InChI=1S/C20H19ClN4O/c1-20(12-26-11-18(22)25-20)14-5-3-6-16(9-14)24-17-7-2-4-13-8-15(21)10-23-19(13)17/h2-10,24H,11-12H2,1H3,(H2,22,25)/t20-/m0/s1

> <OPENEYE_INCHIKEY>
MISZEAYFRRVHET-FQEVSTJZSA-N

> <FORMULA>
C20H19ClN4O

$$$$
