5T5
  -OEChem-02242319223D

 44 47  0     1  0  0  0  0  0999 V2000
   -0.6670    0.1130    2.0250 C   0  0  0  0  0  0  0  0  0  0  0  0
   -2.7380    0.7680    0.6010 C   0  0  0  0  0  0  0  0  0  0  0  0
    0.9600   -2.8210    0.0210 C   0  0  0  0  0  0  0  0  0  0  0  0
   -4.0630    0.2280    0.2560 C   0  0  0  0  0  0  0  0  0  0  0  0
   -4.2600   -1.1510    0.1360 C   0  0  0  0  0  0  0  0  0  0  0  0
    4.6920    1.3440   -0.2320 C   0  0  0  0  0  0  0  0  0  0  0  0
   -6.3770    0.5280   -0.2690 C   0  0  0  0  0  0  0  0  0  0  0  0
    3.5290    2.0910   -0.3560 C   0  0  0  0  0  0  0  0  0  0  0  0
   -6.4850   -0.8480   -0.3790 C   0  0  0  0  0  0  0  0  0  0  0  0
   -7.7590    1.5420   -0.5450 Cl  0  0  0  0  0  0  0  0  0  0  0  0
   -5.4450   -1.6330   -0.1720 N   0  0  0  0  0  0  0  0  0  0  0  0
   -5.1510    1.0880    0.0480 C   0  0  0  0  0  0  0  0  0  0  0  0
   -2.5780    1.9650    0.7020 O   0  0  0  0  0  0  0  0  0  0  0  0
   -1.5790   -0.1690    0.8290 C   0  0  1  0  0  0  0  0  0  0  0  0
   -0.1700    0.3840    0.6040 C   0  0  2  0  0  0  0  0  0  0  0  0
    0.8790   -0.5700    0.0290 C   0  0  2  0  0  0  0  0  0  0  0  0
    0.4370   -1.1120   -1.3530 C   0  0  0  0  0  0  0  0  0  0  0  0
    0.8920   -2.4780   -1.2810 O   0  0  0  0  0  0  0  0  0  0  0  0
    1.0250   -4.1230    0.4510 N   0  0  0  0  0  0  0  0  0  0  0  0
    0.9630   -1.8070    0.8300 N   0  0  0  0  0  0  0  0  0  0  0  0
    2.2240    0.1050   -0.0630 C   0  0  0  0  0  0  0  0  0  0  0  0
    2.2980    1.4700   -0.2710 C   0  0  0  0  0  0  0  0  0  0  0  0
    4.6140   -0.0270   -0.0290 C   0  0  0  0  0  0  0  0  0  0  0  0
    3.3810   -0.6430    0.0550 C   0  0  0  0  0  0  0  0  0  0  0  0
    5.9040    1.9520   -0.3150 O   0  0  0  0  0  0  0  0  0  0  0  0
    7.0580    1.1200   -0.1790 C   0  0  0  0  0  0  0  0  0  0  0  0
    7.0370    0.4950    1.0720 F   0  0  0  0  0  0  0  0  0  0  0  0
    7.0550    0.1490   -1.1860 F   0  0  0  0  0  0  0  0  0  0  0  0
   -0.9060    0.9750    2.6470 H   0  0  0  0  0  0  0  0  0  0  0  0
   -0.2470   -0.7440    2.5500 H   0  0  0  0  0  0  0  0  0  0  0  0
   -3.4330   -1.8270    0.2980 H   0  0  0  0  0  0  0  0  0  0  0  0
    3.5870    3.1570   -0.5170 H   0  0  0  0  0  0  0  0  0  0  0  0
   -7.4410   -1.2870   -0.6260 H   0  0  0  0  0  0  0  0  0  0  0  0
   -5.0370    2.1580    0.1400 H   0  0  0  0  0  0  0  0  0  0  0  0
   -1.7580   -1.2110    0.5670 H   0  0  0  0  0  0  0  0  0  0  0  0
   -0.0810    1.4240    0.2910 H   0  0  0  0  0  0  0  0  0  0  0  0
   -0.6470   -1.0650   -1.4620 H   0  0  0  0  0  0  0  0  0  0  0  0
    0.9330   -0.5750   -2.1610 H   0  0  0  0  0  0  0  0  0  0  0  0
    1.0770   -4.3190    1.4000 H   0  0  0  0  0  0  0  0  0  0  0  0
    1.0190   -4.8480   -0.1940 H   0  0  0  0  0  0  0  0  0  0  0  0
    1.3930    2.0510   -0.3660 H   0  0  0  0  0  0  0  0  0  0  0  0
    5.5180   -0.6110    0.0630 H   0  0  0  0  0  0  0  0  0  0  0  0
    3.3200   -1.7090    0.2170 H   0  0  0  0  0  0  0  0  0  0  0  0
    7.9570    1.7300   -0.2650 H   0  0  0  0  0  0  0  0  0  0  0  0
  7 10  1  0  0  0  0
  7  9  2  0  0  0  0
  7 12  1  0  0  0  0
  9 11  1  0  0  0  0
  4 12  2  0  0  0  0
  5 11  2  0  0  0  0
  4  5  1  0  0  0  0
  2  4  1  0  0  0  0
  3 19  1  0  0  0  0
  2 14  1  0  0  0  0
  1 14  1  0  0  0  0
 14 15  1  0  0  0  0
  2 13  2  0  0  0  0
  3 20  2  0  0  0  0
  3 18  1  0  0  0  0
 16 20  1  0  0  0  0
  1 15  1  0  0  0  0
 17 18  1  0  0  0  0
 15 16  1  0  0  0  0
 16 17  1  0  0  0  0
 16 21  1  0  0  0  0
 21 24  2  0  0  0  0
 21 22  1  0  0  0  0
 23 24  1  0  0  0  0
  8 22  2  0  0  0  0
  6 23  2  0  0  0  0
  6  8  1  0  0  0  0
  6 25  1  0  0  0  0
 25 26  1  0  0  0  0
 26 27  1  0  0  0  0
 26 28  1  0  0  0  0
  1 29  1  0  0  0  0
  1 30  1  0  0  0  0
  5 31  1  0  0  0  0
  8 32  1  0  0  0  0
  9 33  1  0  0  0  0
 12 34  1  0  0  0  0
 14 35  1  0  0  0  0
 15 36  1  0  0  0  0
 17 37  1  0  0  0  0
 17 38  1  0  0  0  0
 19 39  1  0  0  0  0
 19 40  1  0  0  0  0
 22 41  1  0  0  0  0
 23 42  1  0  0  0  0
 24 43  1  0  0  0  0
 26 44  1  0  0  0  0
M  END
> <OPENEYE_ISO_SMILES>
c1cc(ccc1[C@]2(COC(=N2)N)[C@@H]3C[C@H]3C(=O)c4cc(cnc4)Cl)OC(F)F

> <OPENEYE_INCHI>
InChI=1S/C19H16ClF2N3O3/c20-12-5-10(7-24-8-12)16(26)14-6-15(14)19(9-27-18(23)25-19)11-1-3-13(4-2-11)28-17(21)22/h1-5,7-8,14-15,17H,6,9H2,(H2,23,25)/t14-,15-,19-/m1/s1

> <OPENEYE_INCHIKEY>
AVRZQFKBYKMVDH-SPYBWZPUSA-N

> <FORMULA>
C19H16ClF2N3O3

$$$$
