@<TRIPOS>MOLECULE
5T5
 44 47 0 0 0
SMALL
GASTEIGER

@<TRIPOS>ATOM
      1 C          -0.6670    0.1130    2.0250 C.3     1  LIG1       -0.0367
      2 C          -2.7380    0.7680    0.6010 C.2     1  LIG1        0.1681
      3 C           0.9600   -2.8210    0.0210 C.2     1  LIG1        0.2761
      4 C          -4.0630    0.2280    0.2560 C.ar    1  LIG1        0.0371
      5 C          -4.2600   -1.1510    0.1360 C.ar    1  LIG1        0.0381
      6 C           4.6920    1.3440   -0.2320 C.ar    1  LIG1        0.1269
      7 C          -6.3770    0.5280   -0.2690 C.ar    1  LIG1        0.0597
      8 C           3.5290    2.0910   -0.3560 C.ar    1  LIG1       -0.0194
      9 C          -6.4850   -0.8480   -0.3790 C.ar    1  LIG1        0.0459
     10 CL         -7.7590    1.5420   -0.5450 Cl      1  LIG1       -0.0820
     11 N          -5.4450   -1.6330   -0.1720 N.ar    1  LIG1       -0.2611
     12 C          -5.1510    1.0880    0.0480 C.ar    1  LIG1       -0.0300
     13 O          -2.5780    1.9650    0.7020 O.2     1  LIG1       -0.2917
     14 C          -1.5790   -0.1690    0.8290 C.3     1  LIG1        0.0280
     15 C          -0.1700    0.3840    0.6040 C.3     1  LIG1        0.0022
     16 C           0.8790   -0.5700    0.0290 C.3     1  LIG1        0.1288
     17 C           0.4370   -1.1120   -1.3530 C.3     1  LIG1        0.1220
     18 O           0.8920   -2.4780   -1.2810 O.2     1  LIG1       -0.4631
     19 N           1.0250   -4.1230    0.4510 N.pl3   1  LIG1       -0.3134
     20 N           0.9630   -1.8070    0.8300 N.2     1  LIG1       -0.2219
     21 C           2.2240    0.1050   -0.0630 C.ar    1  LIG1       -0.0162
     22 C           2.2980    1.4700   -0.2710 C.ar    1  LIG1       -0.0527
     23 C           4.6140   -0.0270   -0.0290 C.ar    1  LIG1       -0.0194
     24 C           3.3810   -0.6430    0.0550 C.ar    1  LIG1       -0.0527
     25 O           5.9040    1.9520   -0.3150 O.3     1  LIG1       -0.4342
     26 C           7.0580    1.1200   -0.1790 C.3     1  LIG1        0.3893
     27 F           7.0370    0.4950    1.0720 F       1  LIG1       -0.1663
     28 F           7.0550    0.1490   -1.1860 F       1  LIG1       -0.1663
     29 H          -0.9060    0.9750    2.6470 H       1  LIG1        0.0276
     30 H          -0.2470   -0.7440    2.5500 H       1  LIG1        0.0276
     31 H          -3.4330   -1.8270    0.2980 H       1  LIG1        0.0836
     32 H           3.5870    3.1570   -0.5170 H       1  LIG1        0.0654
     33 H          -7.4410   -1.2870   -0.6260 H       1  LIG1        0.0844
     34 H          -5.0370    2.1580    0.1400 H       1  LIG1        0.0640
     35 H          -1.7580   -1.2110    0.5670 H       1  LIG1        0.0385
     36 H          -0.0810    1.4240    0.2910 H       1  LIG1        0.0336
     37 H          -0.6470   -1.0650   -1.4620 H       1  LIG1        0.0725
     38 H           0.9330   -0.5750   -2.1610 H       1  LIG1        0.0725
     39 H           1.0770   -4.3190    1.4000 H       1  LIG1        0.1466
     40 H           1.0190   -4.8480   -0.1940 H       1  LIG1        0.1466
     41 H           1.3930    2.0510   -0.3660 H       1  LIG1        0.0622
     42 H           5.5180   -0.6110    0.0630 H       1  LIG1        0.0654
     43 H           3.3200   -1.7090    0.2170 H       1  LIG1        0.0622
     44 H           7.9570    1.7300   -0.2650 H       1  LIG1        0.1520
@<TRIPOS>BOND
     1     7    10    1
     2     7     9   ar
     3     7    12   ar
     4     9    11   ar
     5     4    12   ar
     6     5    11   ar
     7     4     5   ar
     8     2     4    1
     9     3    19    1
    10     2    14    1
    11     1    14    1
    12    14    15    1
    13     2    13    2
    14     3    20    2
    15     3    18    1
    16    16    20    1
    17     1    15    1
    18    17    18    1
    19    15    16    1
    20    16    17    1
    21    16    21    1
    22    21    24   ar
    23    21    22   ar
    24    23    24   ar
    25     8    22   ar
    26     6    23   ar
    27     6     8   ar
    28     6    25    1
    29    25    26    1
    30    26    27    1
    31    26    28    1
    32     1    29    1
    33     1    30    1
    34     5    31    1
    35     8    32    1
    36     9    33    1
    37    12    34    1
    38    14    35    1
    39    15    36    1
    40    17    37    1
    41    17    38    1
    42    19    39    1
    43    19    40    1
    44    22    41    1
    45    23    42    1
    46    24    43    1
    47    26    44    1
