5T5
  Mrv15b2303062314112D          

 28 31  0  0  0  0            999 V2000
    1.5936   -0.5166    0.0000 C   0  0  0  0  0  0  0  0  0  0  0  0
    0.0541   -0.9291    0.0000 C   0  0  0  0  0  0  0  0  0  0  0  0
    2.3372    1.6903    0.0000 C   0  0  0  0  0  0  0  0  0  0  0  0
    0.0541   -1.7541    0.0000 C   0  0  0  0  0  0  0  0  0  0  0  0
   -0.6603   -2.1666    0.0000 C   0  0  0  0  0  0  0  0  0  0  0  0
   -1.2803    0.7641    0.0000 C   0  0  0  0  0  0  0  0  0  0  0  0
    0.7686   -2.9916    0.0000 C   0  0  0  0  0  0  0  0  0  0  0  0
   -0.7954    0.0967    0.0000 C   0  0  0  0  0  0  0  0  0  0  0  0
    0.0541   -3.4041    0.0000 C   0  0  0  0  0  0  0  0  0  0  0  0
    1.4831   -3.4041    0.0000 Cl  0  0  0  0  0  0  0  0  0  0  0  0
   -0.6603   -2.9916    0.0000 N   0  0  0  0  0  0  0  0  0  0  0  0
    0.7686   -2.1666    0.0000 C   0  0  0  0  0  0  0  0  0  0  0  0
   -0.6603   -0.5166    0.0000 O   0  0  0  0  0  0  0  0  0  0  0  0
    0.7686   -0.5166    0.0000 C   0  0  1  0  0  0  0  0  0  0  0  0
    1.1811    0.1978    0.0000 C   0  0  2  0  0  0  0  0  0  0  0  0
    1.1811    1.0228    0.0000 C   0  0  2  0  0  0  0  0  0  0  0  0
    1.0096    1.8298    0.0000 C   0  0  0  0  0  0  0  0  0  0  0  0
    1.7241    2.2423    0.0000 O   0  0  0  0  0  0  0  0  0  0  0  0
    3.1441    1.8618    0.0000 N   0  0  0  0  0  0  0  0  0  0  0  0
    2.0016    0.9366    0.0000 N   0  0  0  0  0  0  0  0  0  0  0  0
    0.3606    0.9366    0.0000 C   0  0  0  0  0  0  0  0  0  0  0  0
    0.0251    0.1829    0.0000 C   0  0  0  0  0  0  0  0  0  0  0  0
   -0.9448    1.5178    0.0000 C   0  0  0  0  0  0  0  0  0  0  0  0
   -0.1243    1.6040    0.0000 C   0  0  0  0  0  0  0  0  0  0  0  0
   -2.1008    0.6779    0.0000 O   0  0  0  0  0  0  0  0  0  0  0  0
   -2.5857    1.3453    0.0000 C   0  0  0  0  0  0  0  0  0  0  0  0
   -3.4062    1.2591    0.0000 F   0  0  0  0  0  0  0  0  0  0  0  0
   -2.2502    2.0990    0.0000 F   0  0  0  0  0  0  0  0  0  0  0  0
  7 10  1  0  0  0  0
  7  9  4  0  0  0  0
  7 12  4  0  0  0  0
  9 11  4  0  0  0  0
  4 12  4  0  0  0  0
  5 11  4  0  0  0  0
  4  5  4  0  0  0  0
  2  4  1  0  0  0  0
  3 19  1  0  0  0  0
 14  2  1  1  0  0  0
  1 14  1  0  0  0  0
 14 15  1  0  0  0  0
  2 13  2  0  0  0  0
  3 20  2  0  0  0  0
  3 18  1  0  0  0  0
 16 20  1  1  0  0  0
  1 15  1  0  0  0  0
 17 18  1  0  0  0  0
 15 16  1  6  0  0  0
 16 17  1  0  0  0  0
 16 21  1  1  0  0  0
 21 24  4  0  0  0  0
 21 22  4  0  0  0  0
 23 24  4  0  0  0  0
  8 22  4  0  0  0  0
  6 23  4  0  0  0  0
  6  8  4  0  0  0  0
  6 25  1  0  0  0  0
 25 26  1  0  0  0  0
 26 27  1  0  0  0  0
 26 28  1  0  0  0  0
M  END
