@<TRIPOS>MOLECULE
0GX
 58 61 0 0 0
SMALL
GASTEIGER

@<TRIPOS>ATOM
      1 C          43.1070  -17.1750   -2.9550 C.3     1  UNL1        0.0272
      2 C          45.4710  -17.1670   -2.0190 C.3     1  UNL1       -0.0098
      3 C          45.8030  -18.2570   -3.0590 C.3     1  UNL1       -0.0273
      4 C          44.5170  -18.9780   -3.5060 C.3     1  UNL1        0.0272
      5 C          44.2710  -16.2950   -2.4540 C.3     1  UNL1       -0.0273
      6 C          43.7240  -19.4480   -2.2750 C.3     1  UNL1       -0.0326
      7 C          42.7980  -18.2630   -1.9110 C.3     1  UNL1       -0.0326
      8 C          43.3050  -17.8450   -5.3660 C.2     1  UNL1        0.2541
      9 N          43.6050  -17.9800   -4.0720 N.am    1  UNL1       -0.2910
     10 O          43.8230  -18.6020   -6.1870 O.2     1  UNL1       -0.2694
     11 C          42.3340  -16.7820   -5.8660 C.ar    1  UNL1        0.0815
     12 C          42.6010  -15.4170   -6.0170 C.ar    1  UNL1       -0.0136
     13 C          41.4740  -14.6750   -6.4000 C.ar    1  UNL1        0.0706
     14 C          43.9910  -14.7930   -5.8450 C.3     1  UNL1       -0.0373
     15 C          40.3150  -15.4380   -6.5030 C.ar    1  UNL1        0.1735
     16 BR         41.5030  -12.8120   -6.7310 Br      1  UNL1       -0.0456
     17 S          40.6860  -17.0480   -6.1340 S.2     1  UNL1       -0.0459
     18 O          39.0940  -14.9530   -6.8510 O.3     1  UNL1       -0.4844
     19 C          38.1390  -15.1550   -5.8040 C.3     1  UNL1        0.0900
     20 C          38.6390  -14.4890   -4.5250 C.3     1  UNL1       -0.0215
     21 C          38.3000  -13.0070   -4.5490 C.3     1  UNL1       -0.0622
     22 C          46.6890  -16.3000   -1.6670 C.ar    1  UNL1       -0.0087
     23 C          47.1440  -15.3860   -2.6170 C.ar    1  UNL1        0.1268
     24 C          48.2470  -14.5750   -2.3440 C.ar    1  UNL1       -0.0259
     25 F          46.5090  -15.2870   -3.8020 F       1  UNL1       -0.2052
     26 C          48.8990  -14.6830   -1.1160 C.ar    1  UNL1       -0.0546
     27 C          48.4480  -15.6000   -0.1610 C.ar    1  UNL1       -0.0334
     28 C          47.3430  -16.4090   -0.4340 C.ar    1  UNL1       -0.0512
     29 C          49.1780  -15.7130    1.1810 C.3     1  UNL1        0.0186
     30 N          48.2700  -15.3250    2.2670 N.3     1  UNL1       -0.3261
     31 H          42.2537  -16.5198   -3.1842 H       1  UNL1        0.0501
     32 H          45.1783  -17.6997   -1.1022 H       1  UNL1        0.0351
     33 H          46.2805  -17.7909   -3.9335 H       1  UNL1        0.0289
     34 H          46.4849  -18.9904   -2.6039 H       1  UNL1        0.0289
     35 H          44.8096  -19.7918   -4.1858 H       1  UNL1        0.0501
     36 H          44.5890  -15.6223   -3.2641 H       1  UNL1        0.0289
     37 H          43.9252  -15.7134   -1.5867 H       1  UNL1        0.0289
     38 H          43.1298  -20.3414   -2.5172 H       1  UNL1        0.0284
     39 H          44.3858  -19.7234   -1.4407 H       1  UNL1        0.0284
     40 H          43.0184  -17.8984   -0.8969 H       1  UNL1        0.0284
     41 H          41.7368  -18.5523   -1.9199 H       1  UNL1        0.0284
     42 H          44.2173  -14.6914   -4.7733 H       1  UNL1        0.0278
     43 H          44.7443  -15.4393   -6.3191 H       1  UNL1        0.0278
     44 H          44.0086  -13.8006   -6.3191 H       1  UNL1        0.0278
     45 H          37.1755  -14.7118   -6.0958 H       1  UNL1        0.0696
     46 H          38.0083  -16.2332   -5.6294 H       1  UNL1        0.0696
     47 H          38.1567  -14.9598   -3.6557 H       1  UNL1        0.0295
     48 H          39.7300  -14.6107   -4.4550 H       1  UNL1        0.0295
     49 H          38.2146  -12.6337   -3.5178 H       1  UNL1        0.0231
     50 H          39.0956  -12.4573   -5.0733 H       1  UNL1        0.0231
     51 H          37.3445  -12.8579   -5.0733 H       1  UNL1        0.0231
     52 H          48.6006  -13.8532   -3.0950 H       1  UNL1        0.0646
     53 H          49.7691  -14.0462   -0.8982 H       1  UNL1        0.0622
     54 H          46.9876  -17.1296    0.3173 H       1  UNL1        0.0624
     55 H          49.5079  -16.7514    1.3325 H       1  UNL1        0.0471
     56 H          50.0530  -15.0464    1.1793 H       1  UNL1        0.0471
     57 H          48.7183  -15.5166    3.1743 H       1  UNL1        0.1185
     58 H          48.0577  -14.3197    2.1944 H       1  UNL1        0.1185
@<TRIPOS>BOND
     1     3     2    1
     2     4     3    1
     3     5     1    1
     4     5     2    1
     5     6     4    1
     6     7     1    1
     7     7     6    1
     8     9     8   am
     9     9     1    1
    10     9     4    1
    11    10     8    2
    12    11     8    1
    13    12    11   ar
    14    13    12   ar
    15    14    12    1
    16    15    13   ar
    17    16    13    1
    18    17    11   ar
    19    17    15   ar
    20    18    15    1
    21    19    18    1
    22    20    19    1
    23    21    20    1
    24    22     2    1
    25    23    22   ar
    26    24    23   ar
    27    25    23    1
    28    26    24   ar
    29    27    26   ar
    30    28    27   ar
    31    28    22   ar
    32    29    27    1
    33    30    29    1
    34     1    31    1
    35     2    32    1
    36     3    33    1
    37     3    34    1
    38     4    35    1
    39     5    36    1
    40     5    37    1
    41     6    38    1
    42     6    39    1
    43     7    40    1
    44     7    41    1
    45    14    42    1
    46    14    43    1
    47    14    44    1
    48    19    45    1
    49    19    46    1
    50    20    47    1
    51    20    48    1
    52    21    49    1
    53    21    50    1
    54    21    51    1
    55    24    52    1
    56    26    53    1
    57    28    54    1
    58    29    55    1
    59    29    56    1
    60    30    57    1
    61    30    58    1
