0GX
 OpenBabel11102213043D

 58 61  0  0  0  0  0  0  0  0999 V2000
   43.1070  -17.1750   -2.9550 C   0  0  2  0  0  0  0  0  0  0  0  0
   45.4710  -17.1670   -2.0190 C   0  0  2  0  0  0  0  0  0  0  0  0
   45.8030  -18.2570   -3.0590 C   0  0  0  0  0  0  0  0  0  0  0  0
   44.5170  -18.9780   -3.5060 C   0  0  1  0  0  0  0  0  0  0  0  0
   44.2710  -16.2950   -2.4540 C   0  0  0  0  0  0  0  0  0  0  0  0
   43.7240  -19.4480   -2.2750 C   0  0  0  0  0  0  0  0  0  0  0  0
   42.7980  -18.2630   -1.9110 C   0  0  0  0  0  0  0  0  0  0  0  0
   43.3050  -17.8450   -5.3660 C   0  0  0  0  0  0  0  0  0  0  0  0
   43.6050  -17.9800   -4.0720 N   0  0  0  0  0  0  0  0  0  0  0  0
   43.8230  -18.6020   -6.1870 O   0  0  0  0  0  0  0  0  0  0  0  0
   42.3340  -16.7820   -5.8660 C   0  0  0  0  0  0  0  0  0  0  0  0
   42.6010  -15.4170   -6.0170 C   0  0  0  0  0  0  0  0  0  0  0  0
   41.4740  -14.6750   -6.4000 C   0  0  0  0  0  0  0  0  0  0  0  0
   43.9910  -14.7930   -5.8450 C   0  0  0  0  0  0  0  0  0  0  0  0
   40.3150  -15.4380   -6.5030 C   0  0  0  0  0  0  0  0  0  0  0  0
   41.5030  -12.8120   -6.7310 Br  0  0  0  0  0  0  0  0  0  0  0  0
   40.6860  -17.0480   -6.1340 S   0  0  0  0  0  0  0  0  0  0  0  0
   39.0940  -14.9530   -6.8510 O   0  0  0  0  0  0  0  0  0  0  0  0
   38.1390  -15.1550   -5.8040 C   0  0  0  0  0  0  0  0  0  0  0  0
   38.6390  -14.4890   -4.5250 C   0  0  0  0  0  0  0  0  0  0  0  0
   38.3000  -13.0070   -4.5490 C   0  0  0  0  0  0  0  0  0  0  0  0
   46.6890  -16.3000   -1.6670 C   0  0  0  0  0  0  0  0  0  0  0  0
   47.1440  -15.3860   -2.6170 C   0  0  0  0  0  0  0  0  0  0  0  0
   48.2470  -14.5750   -2.3440 C   0  0  0  0  0  0  0  0  0  0  0  0
   46.5090  -15.2870   -3.8020 F   0  0  0  0  0  0  0  0  0  0  0  0
   48.8990  -14.6830   -1.1160 C   0  0  0  0  0  0  0  0  0  0  0  0
   48.4480  -15.6000   -0.1610 C   0  0  0  0  0  0  0  0  0  0  0  0
   47.3430  -16.4090   -0.4340 C   0  0  0  0  0  0  0  0  0  0  0  0
   49.1780  -15.7130    1.1810 C   0  0  0  0  0  0  0  0  0  0  0  0
   48.2700  -15.3250    2.2670 N   0  0  0  0  0  0  0  0  0  0  0  0
   42.2537  -16.5198   -3.1842 H   0  0  0  0  0  0  0  0  0  0  0  0
   45.1783  -17.6997   -1.1022 H   0  0  0  0  0  0  0  0  0  0  0  0
   46.2805  -17.7909   -3.9335 H   0  0  0  0  0  0  0  0  0  0  0  0
   46.4849  -18.9904   -2.6039 H   0  0  0  0  0  0  0  0  0  0  0  0
   44.8096  -19.7918   -4.1858 H   0  0  0  0  0  0  0  0  0  0  0  0
   44.5890  -15.6223   -3.2641 H   0  0  0  0  0  0  0  0  0  0  0  0
   43.9252  -15.7134   -1.5867 H   0  0  0  0  0  0  0  0  0  0  0  0
   43.1298  -20.3414   -2.5172 H   0  0  0  0  0  0  0  0  0  0  0  0
   44.3858  -19.7234   -1.4407 H   0  0  0  0  0  0  0  0  0  0  0  0
   43.0184  -17.8984   -0.8969 H   0  0  0  0  0  0  0  0  0  0  0  0
   41.7368  -18.5523   -1.9199 H   0  0  0  0  0  0  0  0  0  0  0  0
   44.2173  -14.6914   -4.7733 H   0  0  0  0  0  0  0  0  0  0  0  0
   44.7443  -15.4393   -6.3191 H   0  0  0  0  0  0  0  0  0  0  0  0
   44.0086  -13.8006   -6.3191 H   0  0  0  0  0  0  0  0  0  0  0  0
   37.1755  -14.7118   -6.0958 H   0  0  0  0  0  0  0  0  0  0  0  0
   38.0083  -16.2332   -5.6294 H   0  0  0  0  0  0  0  0  0  0  0  0
   38.1567  -14.9598   -3.6557 H   0  0  0  0  0  0  0  0  0  0  0  0
   39.7300  -14.6107   -4.4550 H   0  0  0  0  0  0  0  0  0  0  0  0
   38.2146  -12.6337   -3.5178 H   0  0  0  0  0  0  0  0  0  0  0  0
   39.0956  -12.4573   -5.0733 H   0  0  0  0  0  0  0  0  0  0  0  0
   37.3445  -12.8579   -5.0733 H   0  0  0  0  0  0  0  0  0  0  0  0
   48.6006  -13.8532   -3.0950 H   0  0  0  0  0  0  0  0  0  0  0  0
   49.7691  -14.0462   -0.8982 H   0  0  0  0  0  0  0  0  0  0  0  0
   46.9876  -17.1296    0.3173 H   0  0  0  0  0  0  0  0  0  0  0  0
   49.5079  -16.7514    1.3325 H   0  0  0  0  0  0  0  0  0  0  0  0
   50.0530  -15.0464    1.1793 H   0  0  0  0  0  0  0  0  0  0  0  0
   48.7183  -15.5166    3.1743 H   0  0  0  0  0  0  0  0  0  0  0  0
   48.0577  -14.3197    2.1944 H   0  0  0  0  0  0  0  0  0  0  0  0
  1 31  1  6  0  0  0
  2 32  1  1  0  0  0
  3  2  1  0  0  0  0
  3 33  1  0  0  0  0
  3 34  1  0  0  0  0
  4  3  1  0  0  0  0
  4 35  1  6  0  0  0
  5  1  1  0  0  0  0
  5  2  1  0  0  0  0
  5 36  1  0  0  0  0
  5 37  1  0  0  0  0
  6  4  1  0  0  0  0
  6 38  1  0  0  0  0
  6 39  1  0  0  0  0
  7  1  1  0  0  0  0
  7  6  1  0  0  0  0
  7 40  1  0  0  0  0
  7 41  1  0  0  0  0
  9  8  1  0  0  0  0
  9  1  1  0  0  0  0
  9  4  1  0  0  0  0
 10  8  2  0  0  0  0
 11  8  1  0  0  0  0
 12 11  2  0  0  0  0
 13 12  1  0  0  0  0
 14 12  1  0  0  0  0
 14 42  1  0  0  0  0
 14 43  1  0  0  0  0
 14 44  1  0  0  0  0
 15 13  2  0  0  0  0
 16 13  1  0  0  0  0
 17 11  1  0  0  0  0
 17 15  1  0  0  0  0
 18 15  1  0  0  0  0
 19 18  1  0  0  0  0
 19 45  1  0  0  0  0
 19 46  1  0  0  0  0
 20 19  1  0  0  0  0
 20 47  1  0  0  0  0
 20 48  1  0  0  0  0
 21 20  1  0  0  0  0
 21 49  1  0  0  0  0
 21 50  1  0  0  0  0
 21 51  1  0  0  0  0
 22  2  1  0  0  0  0
 23 22  2  0  0  0  0
 24 23  1  0  0  0  0
 24 52  1  0  0  0  0
 25 23  1  0  0  0  0
 26 24  2  0  0  0  0
 26 53  1  0  0  0  0
 27 26  1  0  0  0  0
 28 27  2  0  0  0  0
 28 22  1  0  0  0  0
 28 54  1  0  0  0  0
 29 27  1  0  0  0  0
 29 55  1  0  0  0  0
 29 56  1  0  0  0  0
 30 29  1  0  0  0  0
 30 57  1  0  0  0  0
 30 58  1  0  0  0  0
M  END
$$$$
