@<TRIPOS>MOLECULE
0FO
 18 19 0 0 0
SMALL
GASTEIGER

@<TRIPOS>ATOM
      1 C         168.0200 -117.9130   -4.2590 C.ar    1  UNL1        0.1426
      2 C         167.7480 -118.0030   -2.8990 C.ar    1  UNL1        0.0600
      3 C         167.2560 -116.8560   -2.2190 C.ar    1  UNL1        0.1343
      4 C         167.0330 -115.6350   -2.8440 C.ar    1  UNL1        0.0650
      5 C         167.4210 -115.5860   -4.1900 C.ar    1  UNL1        0.3407
      6 C         167.9120 -119.2500   -2.3330 C.ar    1  UNL1       -0.0336
      7 C         168.3640 -120.2830   -3.1690 C.ar    1  UNL1        0.0188
      8 C         168.7270 -120.1540   -4.5070 C.ar    1  UNL1       -0.0442
      9 C         168.5090 -118.9210   -5.0690 C.ar    1  UNL1       -0.0175
     10 O         167.8990 -116.6830   -4.8340 O.2     1  UNL1       -0.4219
     11 O         167.3170 -114.5290   -4.8380 O.2     1  UNL1       -0.2451
     12 O         166.9280 -116.9440   -0.9550 O.3     1  UNL1       -0.5058
     13 BR        168.6770 -121.8470   -2.4060 Br      1  UNL1       -0.0503
     14 H         166.5871 -114.7747   -2.3234 H       1  UNL1        0.0726
     15 H         167.6972 -119.4279   -1.2690 H       1  UNL1        0.0637
     16 H         169.1613 -120.9880   -5.0778 H       1  UNL1        0.0630
     17 H         168.7175 -118.7399   -6.1338 H       1  UNL1        0.0655
     18 H         166.5847 -116.1484   -0.4761 H       1  UNL1        0.2922
@<TRIPOS>BOND
     1     2     1   ar
     2     3     2   ar
     3     4     3   ar
     4     5     4   ar
     5     6     2   ar
     6     7     6   ar
     7     8     7   ar
     8     9     8   ar
     9     9     1   ar
    10    10     5   ar
    11    10     1   ar
    12    11     5    2
    13    12     3    1
    14    13     7    1
    15     4    14    1
    16     6    15    1
    17     8    16    1
    18     9    17    1
    19    12    18    1
