0FO
 OpenBabel10052215523D

 18 19  0  0  0  0  0  0  0  0999 V2000
  168.0200 -117.9130   -4.2590 C   0  0  0  0  0  0  0  0  0  0  0  0
  167.7480 -118.0030   -2.8990 C   0  0  0  0  0  0  0  0  0  0  0  0
  167.2560 -116.8560   -2.2190 C   0  0  0  0  0  0  0  0  0  0  0  0
  167.0330 -115.6350   -2.8440 C   0  0  0  0  0  0  0  0  0  0  0  0
  167.4210 -115.5860   -4.1900 C   0  0  0  0  0  0  0  0  0  0  0  0
  167.9120 -119.2500   -2.3330 C   0  0  0  0  0  0  0  0  0  0  0  0
  168.3640 -120.2830   -3.1690 C   0  0  0  0  0  0  0  0  0  0  0  0
  168.7270 -120.1540   -4.5070 C   0  0  0  0  0  0  0  0  0  0  0  0
  168.5090 -118.9210   -5.0690 C   0  0  0  0  0  0  0  0  0  0  0  0
  167.8990 -116.6830   -4.8340 O   0  0  0  0  0  0  0  0  0  0  0  0
  167.3170 -114.5290   -4.8380 O   0  0  0  0  0  0  0  0  0  0  0  0
  166.9280 -116.9440   -0.9550 O   0  0  0  0  0  0  0  0  0  0  0  0
  168.6770 -121.8470   -2.4060 Br  0  0  0  0  0  0  0  0  0  0  0  0
  166.5871 -114.7747   -2.3234 H   0  0  0  0  0  0  0  0  0  0  0  0
  167.6972 -119.4279   -1.2690 H   0  0  0  0  0  0  0  0  0  0  0  0
  169.1613 -120.9880   -5.0778 H   0  0  0  0  0  0  0  0  0  0  0  0
  168.7175 -118.7399   -6.1338 H   0  0  0  0  0  0  0  0  0  0  0  0
  166.5847 -116.1484   -0.4761 H   0  0  0  0  0  0  0  0  0  0  0  0
  2  1  2  0  0  0  0
  3  2  1  0  0  0  0
  4  3  2  0  0  0  0
  4 14  1  0  0  0  0
  5  4  1  0  0  0  0
  6  2  1  0  0  0  0
  6 15  1  0  0  0  0
  7  6  2  0  0  0  0
  8  7  1  0  0  0  0
  8 16  1  0  0  0  0
  9  8  2  0  0  0  0
  9  1  1  0  0  0  0
  9 17  1  0  0  0  0
 10  5  1  0  0  0  0
 10  1  1  0  0  0  0
 11  5  2  0  0  0  0
 12  3  1  0  0  0  0
 12 18  1  0  0  0  0
 13  7  1  0  0  0  0
M  END
$$$$
