5O4
 OpenBabel09282215153D

 31 34  0  0  0  0  0  0  0  0999 V2000
   35.9800  123.7050  127.8950 N   0  0  0  0  0  0  0  0  0  0  0  0
   35.3810  122.5360  128.1600 C   0  0  0  0  0  0  0  0  0  0  0  0
   35.2390  122.0130  129.4280 C   0  0  0  0  0  0  0  0  0  0  0  0
   36.4500  123.5160  132.4790 N   0  0  0  0  0  0  0  0  0  0  0  0
   35.7660  122.7440  130.4820 C   0  0  0  0  0  0  0  0  0  0  0  0
   35.8060  122.5170  131.8180 N   0  0  0  0  0  0  0  0  0  0  0  0
   36.4160  123.9720  130.2570 C   0  0  0  0  0  0  0  0  0  0  0  0
   36.4760  124.4170  128.9200 C   0  0  0  0  0  0  0  0  0  0  0  0
   36.8330  124.3960  131.5580 C   0  0  0  0  0  0  0  0  0  0  0  0
   37.6370  125.5790  131.9700 C   0  0  0  0  0  0  0  0  0  0  0  0
   38.9390  125.4250  132.4330 C   0  0  0  0  0  0  0  0  0  0  0  0
   39.7030  126.5310  132.7580 C   0  0  0  0  0  0  0  0  0  0  0  0
   39.1810  127.7990  132.6280 C   0  0  0  0  0  0  0  0  0  0  0  0
   37.8900  127.9640  132.1770 C   0  0  0  0  0  0  0  0  0  0  0  0
   37.1190  126.8640  131.8490 C   0  0  0  0  0  0  0  0  0  0  0  0
   37.0050  125.7110  128.5390 C   0  0  0  0  0  0  0  0  0  0  0  0
   38.3710  126.0660  128.3860 C   0  0  0  0  0  0  0  0  0  0  0  0
   38.4070  127.3340  127.9750 C   0  0  0  0  0  0  0  0  0  0  0  0
   37.1460  127.8310  127.8550 O   0  0  0  0  0  0  0  0  0  0  0  0
   36.3070  126.8160  128.2090 C   0  0  0  0  0  0  0  0  0  0  0  0
   34.9781  121.9586  127.3148 H   0  0  0  0  0  0  0  0  0  0  0  0
   34.7278  121.0537  129.5968 H   0  0  0  0  0  0  0  0  0  0  0  0
   36.6099  123.5789  133.4946 H   0  0  0  0  0  0  0  0  0  0  0  0
   39.3643  124.4164  132.5415 H   0  0  0  0  0  0  0  0  0  0  0  0
   40.7324  126.3974  133.1220 H   0  0  0  0  0  0  0  0  0  0  0  0
   39.7929  128.6767  132.8834 H   0  0  0  0  0  0  0  0  0  0  0  0
   37.4703  128.9759  132.0773 H   0  0  0  0  0  0  0  0  0  0  0  0
   36.0890  127.0063  131.4900 H   0  0  0  0  0  0  0  0  0  0  0  0
   39.2386  125.4158  128.5720 H   0  0  0  0  0  0  0  0  0  0  0  0
   39.3268  127.8988  127.7628 H   0  0  0  0  0  0  0  0  0  0  0  0
   35.2095  126.8890  128.2233 H   0  0  0  0  0  0  0  0  0  0  0  0
  2  1  1  0  0  0  0
  2 21  1  0  0  0  0
  3  2  2  0  0  0  0
  3 22  1  0  0  0  0
  4 23  1  0  0  0  0
  5  3  1  0  0  0  0
  6  5  2  0  0  0  0
  6  4  1  0  0  0  0
  7  5  1  0  0  0  0
  8  7  1  0  0  0  0
  8  1  2  0  0  0  0
  9  7  2  0  0  0  0
  9  4  1  0  0  0  0
 10  9  1  0  0  0  0
 11 10  2  0  0  0  0
 11 24  1  0  0  0  0
 12 11  1  0  0  0  0
 12 25  1  0  0  0  0
 13 12  2  0  0  0  0
 13 26  1  0  0  0  0
 14 13  1  0  0  0  0
 14 27  1  0  0  0  0
 15 14  2  0  0  0  0
 15 10  1  0  0  0  0
 15 28  1  0  0  0  0
 16  8  1  0  0  0  0
 17 16  1  0  0  0  0
 17 29  1  0  0  0  0
 18 17  2  0  0  0  0
 18 30  1  0  0  0  0
 19 18  1  0  0  0  0
 20 19  1  0  0  0  0
 20 16  2  0  0  0  0
 20 31  1  0  0  0  0
M  END
$$$$
