@<TRIPOS>MOLECULE
5O4
 31 34 0 0 0
SMALL
GASTEIGER

@<TRIPOS>ATOM
      1 N          35.9800  123.7050  127.8950 N.ar    1  UNL1       -0.2541
      2 C          35.3810  122.5360  128.1600 C.ar    1  UNL1        0.0304
      3 C          35.2390  122.0130  129.4280 C.ar    1  UNL1       -0.0158
      4 N          36.4500  123.5160  132.4790 N.ar    1  UNL1       -0.2758
      5 C          35.7660  122.7440  130.4820 C.ar    1  UNL1        0.0966
      6 N          35.8060  122.5170  131.8180 N.ar    1  UNL1       -0.1732
      7 C          36.4160  123.9720  130.2570 C.ar    1  UNL1        0.0534
      8 C          36.4760  124.4170  128.9200 C.ar    1  UNL1        0.0852
      9 C          36.8330  124.3960  131.5580 C.ar    1  UNL1        0.0755
     10 C          37.6370  125.5790  131.9700 C.ar    1  UNL1        0.0005
     11 C          38.9390  125.4250  132.4330 C.ar    1  UNL1       -0.0526
     12 C          39.7030  126.5310  132.7580 C.ar    1  UNL1       -0.0611
     13 C          39.1810  127.7990  132.6280 C.ar    1  UNL1       -0.0617
     14 C          37.8900  127.9640  132.1770 C.ar    1  UNL1       -0.0611
     15 C          37.1190  126.8640  131.8490 C.ar    1  UNL1       -0.0526
     16 C          37.0050  125.7110  128.5390 C.ar    1  UNL1        0.0387
     17 C          38.3710  126.0660  128.3860 C.ar    1  UNL1       -0.0147
     18 C          38.4070  127.3340  127.9750 C.ar    1  UNL1        0.0923
     19 O          37.1460  127.8310  127.8550 O.2     1  UNL1       -0.4704
     20 C          36.3070  126.8160  128.2090 C.ar    1  UNL1        0.1008
     21 H          34.9781  121.9586  127.3148 H       1  UNL1        0.0830
     22 H          34.7278  121.0537  129.5968 H       1  UNL1        0.0655
     23 H          36.6099  123.5789  133.4946 H       1  UNL1        0.1889
     24 H          39.3643  124.4164  132.5415 H       1  UNL1        0.0624
     25 H          40.7324  126.3974  133.1220 H       1  UNL1        0.0618
     26 H          39.7929  128.6767  132.8834 H       1  UNL1        0.0618
     27 H          37.4703  128.9759  132.0773 H       1  UNL1        0.0618
     28 H          36.0890  127.0063  131.4900 H       1  UNL1        0.0624
     29 H          39.2386  125.4158  128.5720 H       1  UNL1        0.0655
     30 H          39.3268  127.8988  127.7628 H       1  UNL1        0.1029
     31 H          35.2095  126.8890  128.2233 H       1  UNL1        0.1036
@<TRIPOS>BOND
     1     2     1   ar
     2     3     2   ar
     3     5     3   ar
     4     6     5   ar
     5     6     4   ar
     6     7     5   ar
     7     8     7   ar
     8     8     1   ar
     9     9     7   ar
    10     9     4   ar
    11    10     9    1
    12    11    10   ar
    13    12    11   ar
    14    13    12   ar
    15    14    13   ar
    16    15    14   ar
    17    15    10   ar
    18    16     8    1
    19    17    16   ar
    20    18    17   ar
    21    19    18   ar
    22    20    19   ar
    23    20    16   ar
    24     2    21    1
    25     3    22    1
    26     4    23    1
    27    11    24    1
    28    12    25    1
    29    13    26    1
    30    14    27    1
    31    15    28    1
    32    17    29    1
    33    18    30    1
    34    20    31    1
