@<TRIPOS>MOLECULE
132
 43 46 0 0 0
SMALL
GASTEIGER

@<TRIPOS>ATOM
      1 CL         12.2370  -10.0630   21.1900 Cl      1  UNL1       -0.0826
      2 C          13.2320  -12.2500   22.6940 C.ar    1  UNL1        0.0797
      3 C          13.3390  -11.4340   21.5350 C.ar    1  UNL1        0.0576
      4 C          14.4180  -11.6580   20.6510 C.ar    1  UNL1       -0.0186
      5 N          16.3760  -13.1190   20.2550 N.ar    1  UNL1       -0.3540
      6 C          15.3160  -12.6890   20.9110 C.ar    1  UNL1        0.0483
      7 C          15.1710  -13.4660   22.0100 C.ar    1  UNL1        0.0012
      8 C          14.1460  -13.3000   22.8950 C.ar    1  UNL1       -0.0364
      9 C          16.9360  -14.1150   20.8890 C.ar    1  UNL1        0.0510
     10 C          16.1670  -14.3860   22.0170 C.ar    1  UNL1       -0.0285
     11 C          18.1070  -14.7760   20.4870 C.ar    1  UNL1        0.0403
     12 C          18.6220  -14.6830   19.1670 C.ar    1  UNL1        0.1336
     13 O          17.9330  -13.9420   18.2040 O.3     1  UNL1       -0.5055
     14 C          19.8580  -15.3560   18.8770 C.ar    1  UNL1        0.0242
     15 C          20.5190  -16.0780   19.8650 C.ar    1  UNL1       -0.0505
     16 C          20.0140  -16.1560   21.1350 C.ar    1  UNL1       -0.0603
     17 C          18.8180  -15.5190   21.4420 C.ar    1  UNL1       -0.0491
     18 C          20.4650  -15.3000   17.6300 C.ar    1  UNL1       -0.0144
     19 C          20.6890  -16.4630   16.9080 C.ar    1  UNL1       -0.0539
     20 C          21.2660  -16.4250   15.6750 C.ar    1  UNL1       -0.0612
     21 C          21.5760  -15.2890   15.1710 C.ar    1  UNL1       -0.0617
     22 C          21.4520  -14.0240   15.8660 C.ar    1  UNL1       -0.0612
     23 C          20.8850  -14.0640   17.1010 C.ar    1  UNL1       -0.0539
     24 C          12.2050  -12.0990   23.6240 C.2     1  UNL1        0.2676
     25 N          11.5130  -13.1290   24.0460 N.2     1  UNL1       -0.2884
     26 N          11.9000  -10.9030   24.0610 N.pl3   1  UNL1       -0.2497
     27 H          14.5475  -11.0217   19.7631 H       1  UNL1        0.0653
     28 H          16.7155  -12.7245   19.3662 H       1  UNL1        0.1659
     29 H          14.0359  -13.9781   23.7541 H       1  UNL1        0.0633
     30 H          16.3327  -15.1807   22.7593 H       1  UNL1        0.0645
     31 H          18.2892  -13.8750   17.2827 H       1  UNL1        0.2922
     32 H          21.4602  -16.5933   19.6227 H       1  UNL1        0.0625
     33 H          20.5532  -16.7210   21.9097 H       1  UNL1        0.0618
     34 H          18.4168  -15.5994   22.4631 H       1  UNL1        0.0625
     35 H          20.3958  -17.4319   17.3384 H       1  UNL1        0.0624
     36 H          21.4626  -17.3547   15.1210 H       1  UNL1        0.0618
     37 H          21.9624  -15.2729   14.1412 H       1  UNL1        0.0618
     38 H          21.7983  -13.0809   15.4181 H       1  UNL1        0.0618
     39 H          20.7554  -13.1391   17.6821 H       1  UNL1        0.0624
     40 H          10.7580  -12.9953   24.7338 H       1  UNL1        0.3009
     41 H          11.7242  -14.0721   23.6899 H       1  UNL1        0.3009
     42 H          11.1422  -10.7836   24.7483 H       1  UNL1        0.2883
     43 H          12.4178  -10.0816   23.7174 H       1  UNL1        0.2883
@<TRIPOS>UNITY_ATOM_ATTR
25 1
charge 1
@<TRIPOS>BOND
     1     3     2   ar
     2     3     1    1
     3     4     3   ar
     4     6     4   ar
     5     6     5   ar
     6     7     6   ar
     7     8     7   ar
     8     8     2   ar
     9     9     5   ar
    10    10     7   ar
    11    10     9   ar
    12    11     9    1
    13    12    11   ar
    14    13    12    1
    15    14    12   ar
    16    15    14   ar
    17    16    15   ar
    18    17    16   ar
    19    17    11   ar
    20    18    14    1
    21    19    18   ar
    22    20    19   ar
    23    21    20   ar
    24    22    21   ar
    25    23    22   ar
    26    23    18   ar
    27    24     2    1
    28    25    24    2
    29    26    24    1
    30     4    27    1
    31     5    28    1
    32     8    29    1
    33    10    30    1
    34    13    31    1
    35    15    32    1
    36    16    33    1
    37    17    34    1
    38    19    35    1
    39    20    36    1
    40    21    37    1
    41    22    38    1
    42    23    39    1
    43    25    40    1
    44    25    41    1
    45    26    42    1
    46    26    43    1
