@<TRIPOS>MOLECULE
277
 53 54 0 0 0
SMALL
GASTEIGER

@<TRIPOS>ATOM
      1 C          41.9430   50.8870   38.9460 C.3     1  UNL1       -0.0482
      2 C          41.7860   50.9350   36.3960 C.3     1  UNL1       -0.0482
      3 C          42.4600   51.5840   37.6560 C.3     1  UNL1       -0.0365
      4 C          44.6830   51.2970   38.9340 C.3     1  UNL1       -0.0603
      5 C          40.4200   50.9680   39.0520 C.3     1  UNL1       -0.0340
      6 C          40.2460   50.9860   36.4660 C.3     1  UNL1       -0.0340
      7 C          44.0070   51.5040   37.5410 C.3     1  UNL1       -0.0173
      8 C          48.6110   53.0140   34.3220 C.3     1  UNL1       -0.0044
      9 C          39.7540   50.3530   37.7990 C.3     1  UNL1        0.0257
     10 C          37.9270   49.1560   35.6860 C.3     1  UNL1        0.0124
     11 C          47.2620   52.3930   33.9710 C.3     1  UNL1        0.0175
     12 C          37.6000   51.0750   39.0160 C.3     1  UNL1        0.0034
     13 C          47.4900   52.6370   36.3760 C.3     1  UNL1        0.0459
     14 N          43.8110   53.5240   36.6650 N.3     1  UNL1       -0.3197
     15 C          48.8600   52.6290   35.7660 C.3     1  UNL1        0.1180
     16 C          44.6210   52.7750   36.8490 C.3     1  UNL1        0.0853
     17 C          37.3870   49.8740   36.9450 C.2     1  UNL1        0.2125
     18 F          49.3390   51.3190   35.8110 F       1  UNL1       -0.2438
     19 C          45.2250   52.4020   35.4540 C.2     1  UNL1        0.2327
     20 O          44.5030   51.9970   34.5650 O.2     1  UNL1       -0.2739
     21 O          36.1690   49.9510   37.0830 O.2     1  UNL1       -0.2759
     22 N          46.5620   52.4770   35.2780 N.am    1  UNL1       -0.2974
     23 N          38.2630   50.4030   37.8650 N.am    1  UNL1       -0.3017
     24 H          42.3772   51.3662   39.7985 H       1  UNL1        0.0269
     25 H          42.2233   49.8551   38.9065 H       1  UNL1        0.0269
     26 H          42.0940   49.9125   36.3291 H       1  UNL1        0.0269
     27 H          42.0938   51.4922   35.5360 H       1  UNL1        0.0269
     28 H          42.1948   52.6192   37.7094 H       1  UNL1        0.0304
     29 H          44.2669   50.4323   39.4074 H       1  UNL1        0.0233
     30 H          44.5092   52.1572   39.5462 H       1  UNL1        0.0233
     31 H          45.7360   51.1597   38.8026 H       1  UNL1        0.0233
     32 H          40.1275   51.9936   39.1382 H       1  UNL1        0.0283
     33 H          40.1045   50.4195   39.9149 H       1  UNL1        0.0283
     34 H          39.8354   50.4409   35.6419 H       1  UNL1        0.0283
     35 H          39.9255   52.0059   36.4216 H       1  UNL1        0.0283
     36 H          44.2091   50.6523   36.9257 H       1  UNL1        0.0320
     37 H          48.5728   54.0783   34.2184 H       1  UNL1        0.0309
     38 H          49.3909   52.6696   33.6754 H       1  UNL1        0.0309
     39 H          40.0616   49.3282   37.8021 H       1  UNL1        0.0500
     40 H          37.1062   48.8132   35.0913 H       1  UNL1        0.0323
     41 H          38.5268   48.3206   35.9815 H       1  UNL1        0.0323
     42 H          38.5216   49.8375   35.1142 H       1  UNL1        0.0323
     43 H          47.3688   51.3788   33.6470 H       1  UNL1        0.0465
     44 H          46.7505   52.8765   33.1651 H       1  UNL1        0.0465
     45 H          36.5379   51.0161   38.8999 H       1  UNL1        0.0429
     46 H          37.8987   52.1019   39.0498 H       1  UNL1        0.0429
     47 H          37.8868   50.5900   39.9256 H       1  UNL1        0.0429
     48 H          47.3131   53.5642   36.8798 H       1  UNL1        0.0493
     49 H          47.3791   51.8561   37.0990 H       1  UNL1        0.0493
     50 H          43.3897   53.7944   37.5537 H       1  UNL1        0.1189
     51 H          43.0984   53.1129   36.0620 H       1  UNL1        0.1189
     52 H          49.5588   53.2751   36.2550 H       1  UNL1        0.0667
     53 H          45.3812   53.1684   37.4910 H       1  UNL1        0.0557
@<TRIPOS>BOND
     1     3     2    1
     2     3     1    1
     3     5     1    1
     4     6     2    1
     5     7     3    1
     6     7     4    1
     7     9     6    1
     8     9     5    1
     9    11     8    1
    10    15    13    1
    11    15     8    1
    12    16    14    1
    13    16     7    1
    14    17    10    1
    15    18    15    1
    16    19    16    1
    17    20    19    2
    18    21    17    2
    19    22    19   am
    20    22    13    1
    21    22    11    1
    22    23    17   am
    23    23    12    1
    24    23     9    1
    25     1    24    1
    26     1    25    1
    27     2    26    1
    28     2    27    1
    29     3    28    1
    30     4    29    1
    31     4    30    1
    32     4    31    1
    33     5    32    1
    34     5    33    1
    35     6    34    1
    36     6    35    1
    37     7    36    1
    38     8    37    1
    39     8    38    1
    40     9    39    1
    41    10    40    1
    42    10    41    1
    43    10    42    1
    44    11    43    1
    45    11    44    1
    46    12    45    1
    47    12    46    1
    48    12    47    1
    49    13    48    1
    50    13    49    1
    51    14    50    1
    52    14    51    1
    53    15    52    1
    54    16    53    1
