277
 OpenBabel04182217393D

 53 54  0  0  0  0  0  0  0  0999 V2000
   41.9430   50.8870   38.9460 C   0  0  0  0  0  0  0  0  0  0  0  0
   41.7860   50.9350   36.3960 C   0  0  0  0  0  0  0  0  0  0  0  0
   42.4600   51.5840   37.6560 C   0  0  2  0  0  0  0  0  0  0  0  0
   44.6830   51.2970   38.9340 C   0  0  0  0  0  0  0  0  0  0  0  0
   40.4200   50.9680   39.0520 C   0  0  0  0  0  0  0  0  0  0  0  0
   40.2460   50.9860   36.4660 C   0  0  0  0  0  0  0  0  0  0  0  0
   44.0070   51.5040   37.5410 C   0  0  2  0  0  0  0  0  0  0  0  0
   48.6110   53.0140   34.3220 C   0  0  0  0  0  0  0  0  0  0  0  0
   39.7540   50.3530   37.7990 C   0  0  2  0  0  0  0  0  0  0  0  0
   37.9270   49.1560   35.6860 C   0  0  0  0  0  0  0  0  0  0  0  0
   47.2620   52.3930   33.9710 C   0  0  0  0  0  0  0  0  0  0  0  0
   37.6000   51.0750   39.0160 C   0  0  0  0  0  0  0  0  0  0  0  0
   47.4900   52.6370   36.3760 C   0  0  0  0  0  0  0  0  0  0  0  0
   43.8110   53.5240   36.6650 N   0  0  0  0  0  0  0  0  0  0  0  0
   48.8600   52.6290   35.7660 C   0  0  1  0  0  0  0  0  0  0  0  0
   44.6210   52.7750   36.8490 C   0  0  2  0  0  0  0  0  0  0  0  0
   37.3870   49.8740   36.9450 C   0  0  0  0  0  0  0  0  0  0  0  0
   49.3390   51.3190   35.8110 F   0  0  0  0  0  0  0  0  0  0  0  0
   45.2250   52.4020   35.4540 C   0  0  0  0  0  0  0  0  0  0  0  0
   44.5030   51.9970   34.5650 O   0  0  0  0  0  0  0  0  0  0  0  0
   36.1690   49.9510   37.0830 O   0  0  0  0  0  0  0  0  0  0  0  0
   46.5620   52.4770   35.2780 N   0  0  0  0  0  0  0  0  0  0  0  0
   38.2630   50.4030   37.8650 N   0  0  0  0  0  0  0  0  0  0  0  0
   42.3772   51.3662   39.7985 H   0  0  0  0  0  0  0  0  0  0  0  0
   42.2233   49.8551   38.9065 H   0  0  0  0  0  0  0  0  0  0  0  0
   42.0940   49.9125   36.3291 H   0  0  0  0  0  0  0  0  0  0  0  0
   42.0938   51.4922   35.5360 H   0  0  0  0  0  0  0  0  0  0  0  0
   42.1948   52.6192   37.7094 H   0  0  0  0  0  0  0  0  0  0  0  0
   44.2669   50.4323   39.4074 H   0  0  0  0  0  0  0  0  0  0  0  0
   44.5092   52.1572   39.5462 H   0  0  0  0  0  0  0  0  0  0  0  0
   45.7360   51.1597   38.8026 H   0  0  0  0  0  0  0  0  0  0  0  0
   40.1275   51.9936   39.1382 H   0  0  0  0  0  0  0  0  0  0  0  0
   40.1045   50.4195   39.9149 H   0  0  0  0  0  0  0  0  0  0  0  0
   39.8354   50.4409   35.6419 H   0  0  0  0  0  0  0  0  0  0  0  0
   39.9255   52.0059   36.4216 H   0  0  0  0  0  0  0  0  0  0  0  0
   44.2091   50.6523   36.9257 H   0  0  0  0  0  0  0  0  0  0  0  0
   48.5728   54.0783   34.2184 H   0  0  0  0  0  0  0  0  0  0  0  0
   49.3909   52.6696   33.6754 H   0  0  0  0  0  0  0  0  0  0  0  0
   40.0616   49.3282   37.8021 H   0  0  0  0  0  0  0  0  0  0  0  0
   37.1062   48.8132   35.0913 H   0  0  0  0  0  0  0  0  0  0  0  0
   38.5268   48.3206   35.9815 H   0  0  0  0  0  0  0  0  0  0  0  0
   38.5216   49.8375   35.1142 H   0  0  0  0  0  0  0  0  0  0  0  0
   47.3688   51.3788   33.6470 H   0  0  0  0  0  0  0  0  0  0  0  0
   46.7505   52.8765   33.1651 H   0  0  0  0  0  0  0  0  0  0  0  0
   36.5379   51.0161   38.8999 H   0  0  0  0  0  0  0  0  0  0  0  0
   37.8987   52.1019   39.0498 H   0  0  0  0  0  0  0  0  0  0  0  0
   37.8868   50.5900   39.9256 H   0  0  0  0  0  0  0  0  0  0  0  0
   47.3131   53.5642   36.8798 H   0  0  0  0  0  0  0  0  0  0  0  0
   47.3791   51.8561   37.0990 H   0  0  0  0  0  0  0  0  0  0  0  0
   43.3897   53.7944   37.5537 H   0  0  0  0  0  0  0  0  0  0  0  0
   43.0984   53.1129   36.0620 H   0  0  0  0  0  0  0  0  0  0  0  0
   49.5588   53.2751   36.2550 H   0  0  0  0  0  0  0  0  0  0  0  0
   45.3812   53.1684   37.4910 H   0  0  0  0  0  0  0  0  0  0  0  0
  1 24  1  0  0  0  0
  1 25  1  0  0  0  0
  2 26  1  0  0  0  0
  2 27  1  0  0  0  0
  3  2  1  0  0  0  0
  3  1  1  0  0  0  0
  3 28  1  1  0  0  0
  4 29  1  0  0  0  0
  4 30  1  0  0  0  0
  4 31  1  0  0  0  0
  5  1  1  0  0  0  0
  5 32  1  0  0  0  0
  5 33  1  0  0  0  0
  6  2  1  0  0  0  0
  6 34  1  0  0  0  0
  6 35  1  0  0  0  0
  7  3  1  0  0  0  0
  7  4  1  0  0  0  0
  7 36  1  6  0  0  0
  8 37  1  0  0  0  0
  8 38  1  0  0  0  0
  9  6  1  0  0  0  0
  9  5  1  0  0  0  0
  9 39  1  6  0  0  0
 10 40  1  0  0  0  0
 10 41  1  0  0  0  0
 10 42  1  0  0  0  0
 11  8  1  0  0  0  0
 11 43  1  0  0  0  0
 11 44  1  0  0  0  0
 12 45  1  0  0  0  0
 12 46  1  0  0  0  0
 12 47  1  0  0  0  0
 13 48  1  0  0  0  0
 13 49  1  0  0  0  0
 14 50  1  0  0  0  0
 14 51  1  0  0  0  0
 15 13  1  0  0  0  0
 15  8  1  0  0  0  0
 15 52  1  1  0  0  0
 16 14  1  0  0  0  0
 16  7  1  0  0  0  0
 16 53  1  1  0  0  0
 17 10  1  0  0  0  0
 18 15  1  0  0  0  0
 19 16  1  0  0  0  0
 20 19  2  0  0  0  0
 21 17  2  0  0  0  0
 22 19  1  0  0  0  0
 22 13  1  0  0  0  0
 22 11  1  0  0  0  0
 23 17  1  0  0  0  0
 23 12  1  0  0  0  0
 23  9  1  0  0  0  0
M  END
$$$$
