@<TRIPOS>MOLECULE
BM5
 38 41 0 0 0
SMALL
GASTEIGER

@<TRIPOS>ATOM
      1 O           6.8460  -39.9580   15.0890 O.2     1  UNL1       -0.2699
      2 S           7.8730  -39.4690   19.1700 S.3     1  UNL1       -0.1232
      3 C           8.9470  -40.1070   17.9270 C.3     1  UNL1        0.0254
      4 C           9.1350  -39.0470   17.0590 C.3     1  UNL1        0.1341
      5 N           7.7180  -38.5960   16.7570 N.am    1  UNL1       -0.2605
      6 C           7.2260  -38.1180   18.0590 C.3     1  UNL1        0.1362
      7 C           6.6940  -39.2050   16.0210 C.2     1  UNL1        0.2492
      8 C           5.4460  -38.7570   16.6270 C.ar    1  UNL1        0.0433
      9 C           4.1160  -38.8630   16.1690 C.ar    1  UNL1       -0.0493
     10 C           3.0570  -38.3820   16.9660 C.ar    1  UNL1       -0.0610
     11 C           3.3340  -37.7970   18.2200 C.ar    1  UNL1       -0.0614
     12 C           4.6690  -37.6890   18.6730 C.ar    1  UNL1       -0.0547
     13 C           5.7260  -38.1700   17.8660 C.ar    1  UNL1        0.0027
     14 C           7.7120  -36.6660   18.4310 C.ar    1  UNL1       -0.0094
     15 C           8.2460  -36.4070   19.7230 C.ar    1  UNL1       -0.0554
     16 C           8.6750  -35.1310   20.1230 C.ar    1  UNL1       -0.0614
     17 C           8.5700  -34.0780   19.1970 C.ar    1  UNL1       -0.0617
     18 C           8.0480  -34.3040   17.9070 C.ar    1  UNL1       -0.0614
     19 C           7.6210  -35.5910   17.5260 C.ar    1  UNL1       -0.0554
     20 C          10.1760  -38.8990   15.9400 C.2     1  UNL1        0.3285
     21 O          10.7000  -39.8200   15.3580 O.2     1  UNL1       -0.2487
     22 O          10.4420  -37.6080   15.6830 O.3     1  UNL1       -0.4666
     23 C          11.0480  -36.9660   16.8050 C.3     1  UNL1        0.0817
     24 H           9.9042  -40.4257   18.3655 H       1  UNL1        0.0401
     25 H           8.5287  -40.9917   17.4246 H       1  UNL1        0.0401
     26 H           9.8318  -38.3839   17.5927 H       1  UNL1        0.0625
     27 H           3.9053  -39.3204   15.1911 H       1  UNL1        0.0625
     28 H           2.0188  -38.4624   16.6116 H       1  UNL1        0.0618
     29 H           2.5099  -37.4244   18.8461 H       1  UNL1        0.0618
     30 H           4.8848  -37.2322   19.6501 H       1  UNL1        0.0622
     31 H           8.3263  -37.2393   20.4378 H       1  UNL1        0.0621
     32 H           9.0812  -34.9603   21.1309 H       1  UNL1        0.0618
     33 H           8.8985  -33.0676   19.4820 H       1  UNL1        0.0618
     34 H           7.9737  -33.4700   17.1936 H       1  UNL1        0.0618
     35 H           7.2148  -35.7571   16.5173 H       1  UNL1        0.0621
     36 H          10.6442  -37.3938   17.7345 H       1  UNL1        0.0661
     37 H          12.1365  -37.1213   16.7725 H       1  UNL1        0.0661
     38 H          10.8302  -35.8883   16.7725 H       1  UNL1        0.0661
@<TRIPOS>BOND
     1     3     2    1
     2     4     3    1
     3     5     4    1
     4     6     5    1
     5     6     2    1
     6     7     1    2
     7     7     5   am
     8     8     7    1
     9     9     8   ar
    10    10     9   ar
    11    11    10   ar
    12    12    11   ar
    13    13     8   ar
    14    13    12   ar
    15    13     6    1
    16    14     6    1
    17    15    14   ar
    18    16    15   ar
    19    17    16   ar
    20    18    17   ar
    21    19    18   ar
    22    19    14   ar
    23    20     4    1
    24    21    20    2
    25    22    20    1
    26    23    22    1
    27     3    24    1
    28     3    25    1
    29     4    26    1
    30     9    27    1
    31    10    28    1
    32    11    29    1
    33    12    30    1
    34    15    31    1
    35    16    32    1
    36    17    33    1
    37    18    34    1
    38    19    35    1
    39    23    36    1
    40    23    37    1
    41    23    38    1
