UCM
  -OEChem-08212101593D

 45 52  0     1  0  0  0  0  0999 V2000
   -0.0540    4.1290    0.0070 N   0  0  0  0  0  0  0  0  0  0  0  0
   -1.1530    3.3540    0.0080 C   0  0  0  0  0  0  0  0  0  0  0  0
   -2.3010    3.7520   -0.0090 O   0  0  0  0  0  0  0  0  0  0  0  0
   -0.7330    1.9410    0.0380 C   0  0  0  0  0  0  0  0  0  0  0  0
   -1.4250    0.7230    0.0530 C   0  0  0  0  0  0  0  0  0  0  0  0
   -2.8270    0.3230   -0.0290 C   0  0  0  0  0  0  0  0  0  0  0  0
   -2.8540   -1.0920    0.0260 C   0  0  0  0  0  0  0  0  0  0  0  0
   -4.0640   -1.7800   -0.0490 C   0  0  0  0  0  0  0  0  0  0  0  0
   -5.2170   -1.0220   -0.1670 C   0  0  0  0  0  0  0  0  0  0  0  0
   -5.1890    0.3610   -0.2110 C   0  0  0  0  0  0  0  0  0  0  0  0
   -4.0020    1.0690   -0.1430 C   0  0  0  0  0  0  0  0  0  0  0  0
   -1.5700   -1.5520    0.1820 N   0  0  0  0  0  0  0  0  0  0  0  0
   -0.7000   -0.4750    0.1430 C   0  0  0  0  0  0  0  0  0  0  0  0
    0.7260   -0.4540    0.1450 C   0  0  0  0  0  0  0  0  0  0  0  0
    1.6080   -1.5210    0.1910 N   0  0  0  0  0  0  0  0  0  0  0  0
    2.8870   -1.0470    0.0390 C   0  0  0  0  0  0  0  0  0  0  0  0
    2.8440    0.3680   -0.0270 C   0  0  0  0  0  0  0  0  0  0  0  0
    4.0080    1.1270   -0.1570 C   0  0  0  0  0  0  0  0  0  0  0  0
    5.2030    0.4310   -0.2300 C   0  0  0  0  0  0  0  0  0  0  0  0
    5.2470   -0.9510   -0.1760 C   0  0  0  0  0  0  0  0  0  0  0  0
    4.1040   -1.7210   -0.0400 C   0  0  0  0  0  0  0  0  0  0  0  0
    1.3950    0.7550    0.0580 C   0  0  0  0  0  0  0  0  0  0  0  0
    0.6750    1.9580    0.0440 C   0  0  0  0  0  0  0  0  0  0  0  0
    1.0630    3.3800    0.0280 C   0  0  0  0  0  0  0  0  0  0  0  0
    2.2010    3.8040    0.0340 O   0  0  0  0  0  0  0  0  0  0  0  0
    1.1990   -2.9110    0.4160 C   0  0  1  0  0  0  0  0  0  0  0  0
    0.0140   -2.9700    1.2430 O   0  0  0  0  0  0  0  0  0  0  0  0
   -1.1470   -2.9380    0.4110 C   0  0  2  0  0  0  0  0  0  0  0  0
   -0.7360   -3.5670   -0.9350 C   0  0  0  0  0  0  0  0  0  0  0  0
    0.8070   -3.5470   -0.9330 C   0  0  0  0  0  0  0  0  0  0  0  0
   -0.0650    5.0990   -0.0070 H   0  0  0  0  0  0  0  0  0  0  0  0
   -4.1010   -2.8590   -0.0160 H   0  0  0  0  0  0  0  0  0  0  0  0
   -6.1690   -1.5270   -0.2270 H   0  0  0  0  0  0  0  0  0  0  0  0
   -6.1190    0.9020   -0.2990 H   0  0  0  0  0  0  0  0  0  0  0  0
   -3.9840    2.1480   -0.1770 H   0  0  0  0  0  0  0  0  0  0  0  0
    3.9780    2.2050   -0.1980 H   0  0  0  0  0  0  0  0  0  0  0  0
    6.1270    0.9820   -0.3320 H   0  0  0  0  0  0  0  0  0  0  0  0
    6.2050   -1.4450   -0.2420 H   0  0  0  0  0  0  0  0  0  0  0  0
    4.1540   -2.7990    0.0030 H   0  0  0  0  0  0  0  0  0  0  0  0
    2.0090   -3.4740    0.8790 H   0  0  0  0  0  0  0  0  0  0  0  0
   -1.9560   -3.5110    0.8660 H   0  0  0  0  0  0  0  0  0  0  0  0
   -1.1010   -4.5920   -1.0020 H   0  0  0  0  0  0  0  0  0  0  0  0
   -1.1200   -2.9720   -1.7640 H   0  0  0  0  0  0  0  0  0  0  0  0
    1.1980   -4.5620   -1.0000 H   0  0  0  0  0  0  0  0  0  0  0  0
    1.1790   -2.9420   -1.7590 H   0  0  0  0  0  0  0  0  0  0  0  0
  1  2  1  0  0  0  0
  1 24  1  0  0  0  0
  1 31  1  0  0  0  0
  2  3  2  0  0  0  0
  2  4  1  0  0  0  0
  4  5  2  0  0  0  0
  4 23  1  0  0  0  0
  5  6  1  0  0  0  0
  5 13  1  0  0  0  0
  6  7  2  0  0  0  0
  6 11  1  0  0  0  0
  7  8  1  0  0  0  0
  7 12  1  0  0  0  0
  8  9  2  0  0  0  0
  8 32  1  0  0  0  0
  9 10  1  0  0  0  0
  9 33  1  0  0  0  0
 10 11  2  0  0  0  0
 10 34  1  0  0  0  0
 11 35  1  0  0  0  0
 12 13  1  0  0  0  0
 12 28  1  0  0  0  0
 13 14  2  0  0  0  0
 14 15  1  0  0  0  0
 14 22  1  0  0  0  0
 15 16  1  0  0  0  0
 15 26  1  0  0  0  0
 16 17  2  0  0  0  0
 16 21  1  0  0  0  0
 17 18  1  0  0  0  0
 17 22  1  0  0  0  0
 18 19  2  0  0  0  0
 18 36  1  0  0  0  0
 19 20  1  0  0  0  0
 19 37  1  0  0  0  0
 20 21  2  0  0  0  0
 20 38  1  0  0  0  0
 21 39  1  0  0  0  0
 22 23  2  0  0  0  0
 23 24  1  0  0  0  0
 24 25  2  0  0  0  0
 26 27  1  0  0  0  0
 26 30  1  0  0  0  0
 26 40  1  0  0  0  0
 27 28  1  0  0  0  0
 28 29  1  0  0  0  0
 28 41  1  0  0  0  0
 29 30  1  0  0  0  0
 29 42  1  0  0  0  0
 29 43  1  0  0  0  0
 30 44  1  0  0  0  0
 30 45  1  0  0  0  0
M  END
> <OPENEYE_ISO_SMILES>
c1ccc2c(c1)c3c4c(c5c6ccccc6n7c5c3n2[C@H]8CC[C@@H]7O8)C(=O)NC4=O

> <OPENEYE_INCHI>
InChI=1S/C24H15N3O3/c28-23-19-17-11-5-1-3-7-13(11)26-15-9-10-16(30-15)27-14-8-4-2-6-12(14)18(22(27)21(17)26)20(19)24(29)25-23/h1-8,15-16H,9-10H2,(H,25,28,29)/t15-,16+

> <OPENEYE_INCHIKEY>
OTPNDVKVEAIXTI-IYBDPMFKSA-N

> <FORMULA>
C24H15N3O3

$$$$
