@<TRIPOS>MOLECULE
UCM
 45 52 0 0 0
SMALL
GASTEIGER

@<TRIPOS>ATOM
      1 N          -0.0540    4.1290    0.0070 N.ar    1  LIG1       -0.2889
      2 C          -1.1530    3.3540    0.0080 C.ar    1  LIG1        0.2600
      3 O          -2.3010    3.7520   -0.0090 O.2     1  LIG1       -0.2671
      4 C          -0.7330    1.9410    0.0380 C.ar    1  LIG1        0.0621
      5 C          -1.4250    0.7230    0.0530 C.ar    1  LIG1        0.0228
      6 C          -2.8270    0.3230   -0.0290 C.ar    1  LIG1        0.0085
      7 C          -2.8540   -1.0920    0.0260 C.ar    1  LIG1        0.0524
      8 C          -4.0640   -1.7800   -0.0490 C.ar    1  LIG1       -0.0375
      9 C          -5.2170   -1.0220   -0.1670 C.ar    1  LIG1       -0.0598
     10 C          -5.1890    0.3610   -0.2110 C.ar    1  LIG1       -0.0611
     11 C          -4.0020    1.0690   -0.1430 C.ar    1  LIG1       -0.0520
     12 N          -1.5700   -1.5520    0.1820 N.ar    1  LIG1       -0.3115
     13 C          -0.7000   -0.4750    0.1430 C.ar    1  LIG1        0.0774
     14 C           0.7260   -0.4540    0.1450 C.ar    1  LIG1        0.0774
     15 N           1.6080   -1.5210    0.1910 N.ar    1  LIG1       -0.3115
     16 C           2.8870   -1.0470    0.0390 C.ar    1  LIG1        0.0524
     17 C           2.8440    0.3680   -0.0270 C.ar    1  LIG1        0.0085
     18 C           4.0080    1.1270   -0.1570 C.ar    1  LIG1       -0.0520
     19 C           5.2030    0.4310   -0.2300 C.ar    1  LIG1       -0.0611
     20 C           5.2470   -0.9510   -0.1760 C.ar    1  LIG1       -0.0598
     21 C           4.1040   -1.7210   -0.0400 C.ar    1  LIG1       -0.0375
     22 C           1.3950    0.7550    0.0580 C.ar    1  LIG1        0.0228
     23 C           0.6750    1.9580    0.0440 C.ar    1  LIG1        0.0621
     24 C           1.0630    3.3800    0.0280 C.ar    1  LIG1        0.2600
     25 O           2.2010    3.8040    0.0340 O.2     1  LIG1       -0.2671
     26 C           1.1990   -2.9110    0.4160 C.3     1  LIG1        0.1384
     27 O           0.0140   -2.9700    1.2430 O.3     1  LIG1       -0.3334
     28 C          -1.1470   -2.9380    0.4110 C.3     1  LIG1        0.1384
     29 C          -0.7360   -3.5670   -0.9350 C.3     1  LIG1       -0.0032
     30 C           0.8070   -3.5470   -0.9330 C.3     1  LIG1       -0.0032
     31 H          -0.0650    5.0990   -0.0070 H       1  LIG1        0.1720
     32 H          -4.1010   -2.8590   -0.0160 H       1  LIG1        0.0638
     33 H          -6.1690   -1.5270   -0.2270 H       1  LIG1        0.0618
     34 H          -6.1190    0.9020   -0.2990 H       1  LIG1        0.0618
     35 H          -3.9840    2.1480   -0.1770 H       1  LIG1        0.0624
     36 H           3.9780    2.2050   -0.1980 H       1  LIG1        0.0624
     37 H           6.1270    0.9820   -0.3320 H       1  LIG1        0.0618
     38 H           6.2050   -1.4450   -0.2420 H       1  LIG1        0.0618
     39 H           4.1540   -2.7990    0.0030 H       1  LIG1        0.0638
     40 H           2.0090   -3.4740    0.8790 H       1  LIG1        0.0839
     41 H          -1.9560   -3.5110    0.8660 H       1  LIG1        0.0839
     42 H          -1.1010   -4.5920   -1.0020 H       1  LIG1        0.0310
     43 H          -1.1200   -2.9720   -1.7640 H       1  LIG1        0.0310
     44 H           1.1980   -4.5620   -1.0000 H       1  LIG1        0.0310
     45 H           1.1790   -2.9420   -1.7590 H       1  LIG1        0.0310
@<TRIPOS>BOND
     1     1     2   ar
     2     1    24   ar
     3     1    31    1
     4     2     3    2
     5     2     4   ar
     6     4     5   ar
     7     4    23   ar
     8     5     6   ar
     9     5    13   ar
    10     6     7   ar
    11     6    11   ar
    12     7     8   ar
    13     7    12   ar
    14     8     9   ar
    15     8    32    1
    16     9    10   ar
    17     9    33    1
    18    10    11   ar
    19    10    34    1
    20    11    35    1
    21    12    13   ar
    22    12    28    1
    23    13    14   ar
    24    14    15   ar
    25    14    22   ar
    26    15    16   ar
    27    15    26    1
    28    16    17   ar
    29    16    21   ar
    30    17    18   ar
    31    17    22   ar
    32    18    19   ar
    33    18    36    1
    34    19    20   ar
    35    19    37    1
    36    20    21   ar
    37    20    38    1
    38    21    39    1
    39    22    23   ar
    40    23    24   ar
    41    24    25    2
    42    26    27    1
    43    26    30    1
    44    26    40    1
    45    27    28    1
    46    28    29    1
    47    28    41    1
    48    29    30    1
    49    29    42    1
    50    29    43    1
    51    30    44    1
    52    30    45    1
