UCM
  Mrv15b2303062313462D          

 30 37  0  0  0  0            999 V2000
    0.0012   -2.4613    0.0000 N   0  0  0  0  0  0  0  0  0  0  0  0
    0.6688   -1.9766    0.0000 C   0  0  0  0  0  0  0  0  0  0  0  0
    1.4534   -2.2318    0.0000 O   0  0  0  0  0  0  0  0  0  0  0  0
    0.4142   -1.1919    0.0000 C   0  0  0  0  0  0  0  0  0  0  0  0
    0.8545   -0.4743    0.0000 C   0  0  0  0  0  0  0  0  0  0  0  0
    1.6623   -0.2505    0.0000 C   0  0  0  0  0  0  0  0  0  0  0  0
    1.7216    0.5724    0.0000 C   0  0  0  0  0  0  0  0  0  0  0  0
    2.4639    0.9325    0.0000 C   0  0  0  0  0  0  0  0  0  0  0  0
    3.1468    0.4697    0.0000 C   0  0  0  0  0  0  0  0  0  0  0  0
    3.0876   -0.3532    0.0000 C   0  0  0  0  0  0  0  0  0  0  0  0
    2.3453   -0.7132    0.0000 C   0  0  0  0  0  0  0  0  0  0  0  0
    0.9507    0.9299    0.0000 N   0  0  0  0  0  0  0  0  0  0  0  0
    0.4299    0.2454    0.0000 C   0  0  0  0  0  0  0  0  0  0  0  0
   -0.4203    0.2437    0.0000 C   0  0  0  0  0  0  0  0  0  0  0  0
   -0.9483    0.9231    0.0000 N   0  0  0  0  0  0  0  0  0  0  0  0
   -1.7280    0.5785    0.0000 C   0  0  0  0  0  0  0  0  0  0  0  0
   -1.6613   -0.2438    0.0000 C   0  0  0  0  0  0  0  0  0  0  0  0
   -2.3401   -0.7127    0.0000 C   0  0  0  0  0  0  0  0  0  0  0  0
   -3.0856   -0.3592    0.0000 C   0  0  0  0  0  0  0  0  0  0  0  0
   -3.1523    0.4631    0.0000 C   0  0  0  0  0  0  0  0  0  0  0  0
   -2.4734    0.9319    0.0000 C   0  0  0  0  0  0  0  0  0  0  0  0
   -0.8489   -0.4717    0.0000 C   0  0  0  0  0  0  0  0  0  0  0  0
   -0.4108   -1.1916    0.0000 C   0  0  0  0  0  0  0  0  0  0  0  0
   -0.6660   -1.9761    0.0000 C   0  0  0  0  0  0  0  0  0  0  0  0
   -1.4508   -2.2307    0.0000 O   0  0  0  0  0  0  0  0  0  0  0  0
   -0.7293    1.7852    0.0000 C   0  0  1  0  0  0  0  0  0  0  0  0
    0.0004    1.7061    0.0000 O   0  0  0  0  0  0  0  0  0  0  0  0
    0.7258    1.7902    0.0000 C   0  0  2  0  0  0  0  0  0  0  0  0
    0.4315    2.6129    0.0000 C   0  0  0  0  0  0  0  0  0  0  0  0
   -0.4378    2.6148    0.0000 C   0  0  0  0  0  0  0  0  0  0  0  0
  1  2  4  0  0  0  0
  1 24  4  0  0  0  0
  2  3  2  0  0  0  0
  2  4  4  0  0  0  0
  4  5  4  0  0  0  0
  4 23  4  0  0  0  0
  5  6  4  0  0  0  0
  5 13  4  0  0  0  0
  6  7  4  0  0  0  0
  6 11  4  0  0  0  0
  7  8  4  0  0  0  0
  7 12  4  0  0  0  0
  8  9  4  0  0  0  0
  9 10  4  0  0  0  0
 10 11  4  0  0  0  0
 12 13  4  0  0  0  0
 12 28  1  0  0  0  0
 13 14  4  0  0  0  0
 14 15  4  0  0  0  0
 14 22  4  0  0  0  0
 15 16  4  0  0  0  0
 15 26  1  0  0  0  0
 16 17  4  0  0  0  0
 16 21  4  0  0  0  0
 17 18  4  0  0  0  0
 17 22  4  0  0  0  0
 18 19  4  0  0  0  0
 19 20  4  0  0  0  0
 20 21  4  0  0  0  0
 22 23  4  0  0  0  0
 23 24  4  0  0  0  0
 24 25  2  0  0  0  0
 26 27  1  1  0  0  0
 26 30  1  0  0  0  0
 28 27  1  1  0  0  0
 28 29  1  0  0  0  0
 29 30  1  0  0  0  0
M  STY  1   1 DAT
M  SAL   1  1   1
M  SDT   1 MRV_IMPLICIT_H                                        
M  SDD   1     0.0000    0.0000    DR    ALL  0       0  
M  SED   1 IMPL_H1
M  END
