@<TRIPOS>MOLECULE
2IN
 56 57 0 0 0
SMALL
GASTEIGER

@<TRIPOS>ATOM
      1 N           8.2100    4.0260   25.8520 N.am    1  UNL1       -0.3053
      2 O           9.7090    2.5980   26.8630 O.2     1  UNL1       -0.2740
      3 C           9.2070    3.0750   25.8750 C.2     1  UNL1        0.2343
      4 C           9.6890    2.5980   24.5170 C.3     1  UNL1        0.1272
      5 N           9.4590    3.4770   23.3990 N.3     1  UNL1       -0.1801
      6 S          10.7320    4.3810   22.9330 S.O2    1  UNL1        0.0342
      7 O          10.6080    4.2390   21.4820 O.2     1  UNL1       -0.1579
      8 O          11.9490    3.9350   23.5360 O.2     1  UNL1       -0.1579
      9 C          10.5820    6.1450   23.2080 C.3     1  UNL1        0.1067
     10 C           9.3390    6.8120   23.6960 C.ar    1  UNL1       -0.0250
     11 C           8.0660    6.4650   23.0600 C.ar    1  UNL1       -0.0570
     12 C           6.8230    7.0880   23.5330 C.ar    1  UNL1       -0.0615
     13 C           6.8540    8.0820   24.6120 C.ar    1  UNL1       -0.0617
     14 C           8.1360    8.4230   25.2630 C.ar    1  UNL1       -0.0615
     15 C           9.3730    7.7940   24.7840 C.ar    1  UNL1       -0.0570
     16 C           8.9440    1.3520   23.9790 C.3     1  UNL1        0.0696
     17 O           9.4140    0.0490   24.2040 O.3     1  UNL1       -0.3929
     18 C           7.4610    4.6390   26.9220 C.3     1  UNL1        0.0882
     19 C           6.0590    4.8880   26.3680 C.2     1  UNL1        0.2305
     20 N           5.2460    5.6240   27.1970 N.am    1  UNL1       -0.3099
     21 O           5.7900    4.4190   25.2670 O.2     1  UNL1       -0.2741
     22 C           3.8990    5.8850   26.9220 C.3     1  UNL1        0.0369
     23 C           3.5460    6.9680   25.9480 C.ar    1  UNL1       -0.0303
     24 C           3.4950    8.3990   26.2270 C.ar    1  UNL1       -0.0563
     25 C           3.2180    9.3010   25.1380 C.ar    1  UNL1       -0.0466
     26 C           2.9020    8.8030   23.7900 C.ar    1  UNL1        0.0647
     27 C           2.9520    7.3510   23.5760 C.ar    1  UNL1       -0.0466
     28 C           2.5500    9.6400   22.7170 C.2     1  UNL1        0.3081
     29 C           3.2570    6.4410   24.6330 C.ar    1  UNL1       -0.0563
     30 N           2.0880    9.2320   21.5280 N.2     1  UNL1       -0.0994
     31 N           2.6350   10.9720   22.7670 N.pl3   1  UNL1       -0.2466
     32 H           7.9561    4.3556   24.9098 H       1  UNL1        0.1492
     33 H          10.7511    2.4655   24.7706 H       1  UNL1        0.0596
     34 H           9.1715    2.8988   22.5965 H       1  UNL1        0.1486
     35 H          11.3636    6.4001   23.9388 H       1  UNL1        0.0565
     36 H          10.6294    6.5218   22.1757 H       1  UNL1        0.0565
     37 H           8.0411    5.7412   22.2320 H       1  UNL1        0.0621
     38 H           5.8627    6.8077   23.0755 H       1  UNL1        0.0618
     39 H           5.9242    8.5726   24.9358 H       1  UNL1        0.0618
     40 H           8.1631    9.1399   26.0969 H       1  UNL1        0.0618
     41 H          10.3346    8.0621   25.2459 H       1  UNL1        0.0621
     42 H           7.9307    1.3915   24.4051 H       1  UNL1        0.0578
     43 H           9.0717    1.4586   22.8916 H       1  UNL1        0.0578
     44 H           9.4737   -0.1166   25.1782 H       1  UNL1        0.2095
     45 H           7.4145    3.9653   27.7903 H       1  UNL1        0.0558
     46 H           7.9324    5.5741   27.2587 H       1  UNL1        0.0558
     47 H           5.6493    6.0030   28.0657 H       1  UNL1        0.1491
     48 H           3.4636    4.9516   26.5358 H       1  UNL1        0.0512
     49 H           3.5049    6.2568   27.8793 H       1  UNL1        0.0512
     50 H           3.6640    8.7805   27.2448 H       1  UNL1        0.0621
     51 H           3.2433   10.3858   25.3184 H       1  UNL1        0.0626
     52 H           2.7483    6.9525   22.5711 H       1  UNL1        0.0626
     53 H           3.2719    5.3565   24.4499 H       1  UNL1        0.0621
     54 H           1.8561    9.9235   20.8007 H       1  UNL1        0.3633
     55 H           2.3631   11.5364   21.9494 H       1  UNL1        0.2884
     56 H           2.9724   11.4347   23.6231 H       1  UNL1        0.2884
@<TRIPOS>BOND
     1     3     2    2
     2     3     1   am
     3     4     3    1
     4     5     4    1
     5     6     5    1
     6     7     6    2
     7     8     6    2
     8     9     6    1
     9    10     9    1
    10    11    10   ar
    11    12    11   ar
    12    13    12   ar
    13    14    13   ar
    14    15    14   ar
    15    15    10   ar
    16    16     4    1
    17    17    16    1
    18    18     1    1
    19    19    18    1
    20    20    19   am
    21    21    19    2
    22    22    20    1
    23    23    22    1
    24    24    23   ar
    25    25    24   ar
    26    26    25   ar
    27    27    26   ar
    28    28    26    1
    29    29    27   ar
    30    29    23   ar
    31    30    28    2
    32    31    28    1
    33     1    32    1
    34     4    33    1
    35     5    34    1
    36     9    35    1
    37     9    36    1
    38    11    37    1
    39    12    38    1
    40    13    39    1
    41    14    40    1
    42    15    41    1
    43    16    42    1
    44    16    43    1
    45    17    44    1
    46    18    45    1
    47    18    46    1
    48    20    47    1
    49    22    48    1
    50    22    49    1
    51    24    50    1
    52    25    51    1
    53    27    52    1
    54    29    53    1
    55    30    54    1
    56    31    55    1
    57    31    56    1
