2IN
 OpenBabel11102215263D

 56 57  0  0  0  0  0  0  0  0999 V2000
    8.2100    4.0260   25.8520 N   0  0  0  0  0  0  0  0  0  0  0  0
    9.7090    2.5980   26.8630 O   0  0  0  0  0  0  0  0  0  0  0  0
    9.2070    3.0750   25.8750 C   0  0  0  0  0  0  0  0  0  0  0  0
    9.6890    2.5980   24.5170 C   0  0  2  0  0  0  0  0  0  0  0  0
    9.4590    3.4770   23.3990 N   0  0  0  0  0  0  0  0  0  0  0  0
   10.7320    4.3810   22.9330 S   0  0  0  0  0  0  0  0  0  0  0  0
   10.6080    4.2390   21.4820 O   0  0  0  0  0  0  0  0  0  0  0  0
   11.9490    3.9350   23.5360 O   0  0  0  0  0  0  0  0  0  0  0  0
   10.5820    6.1450   23.2080 C   0  0  0  0  0  0  0  0  0  0  0  0
    9.3390    6.8120   23.6960 C   0  0  0  0  0  0  0  0  0  0  0  0
    8.0660    6.4650   23.0600 C   0  0  0  0  0  0  0  0  0  0  0  0
    6.8230    7.0880   23.5330 C   0  0  0  0  0  0  0  0  0  0  0  0
    6.8540    8.0820   24.6120 C   0  0  0  0  0  0  0  0  0  0  0  0
    8.1360    8.4230   25.2630 C   0  0  0  0  0  0  0  0  0  0  0  0
    9.3730    7.7940   24.7840 C   0  0  0  0  0  0  0  0  0  0  0  0
    8.9440    1.3520   23.9790 C   0  0  0  0  0  0  0  0  0  0  0  0
    9.4140    0.0490   24.2040 O   0  0  0  0  0  0  0  0  0  0  0  0
    7.4610    4.6390   26.9220 C   0  0  0  0  0  0  0  0  0  0  0  0
    6.0590    4.8880   26.3680 C   0  0  0  0  0  0  0  0  0  0  0  0
    5.2460    5.6240   27.1970 N   0  0  0  0  0  0  0  0  0  0  0  0
    5.7900    4.4190   25.2670 O   0  0  0  0  0  0  0  0  0  0  0  0
    3.8990    5.8850   26.9220 C   0  0  0  0  0  0  0  0  0  0  0  0
    3.5460    6.9680   25.9480 C   0  0  0  0  0  0  0  0  0  0  0  0
    3.4950    8.3990   26.2270 C   0  0  0  0  0  0  0  0  0  0  0  0
    3.2180    9.3010   25.1380 C   0  0  0  0  0  0  0  0  0  0  0  0
    2.9020    8.8030   23.7900 C   0  0  0  0  0  0  0  0  0  0  0  0
    2.9520    7.3510   23.5760 C   0  0  0  0  0  0  0  0  0  0  0  0
    2.5500    9.6400   22.7170 C   0  0  0  0  0  0  0  0  0  0  0  0
    3.2570    6.4410   24.6330 C   0  0  0  0  0  0  0  0  0  0  0  0
    2.0880    9.2320   21.5280 N   0  0  0  0  0  0  0  0  0  0  0  0
    2.6350   10.9720   22.7670 N   0  0  0  0  0  0  0  0  0  0  0  0
    7.9561    4.3556   24.9098 H   0  0  0  0  0  0  0  0  0  0  0  0
   10.7511    2.4655   24.7706 H   0  0  0  0  0  0  0  0  0  0  0  0
    9.1715    2.8988   22.5965 H   0  0  0  0  0  0  0  0  0  0  0  0
   11.3636    6.4001   23.9388 H   0  0  0  0  0  0  0  0  0  0  0  0
   10.6294    6.5218   22.1757 H   0  0  0  0  0  0  0  0  0  0  0  0
    8.0411    5.7412   22.2320 H   0  0  0  0  0  0  0  0  0  0  0  0
    5.8627    6.8077   23.0755 H   0  0  0  0  0  0  0  0  0  0  0  0
    5.9242    8.5726   24.9358 H   0  0  0  0  0  0  0  0  0  0  0  0
    8.1631    9.1399   26.0969 H   0  0  0  0  0  0  0  0  0  0  0  0
   10.3346    8.0621   25.2459 H   0  0  0  0  0  0  0  0  0  0  0  0
    7.9307    1.3915   24.4051 H   0  0  0  0  0  0  0  0  0  0  0  0
    9.0717    1.4586   22.8916 H   0  0  0  0  0  0  0  0  0  0  0  0
    9.4737   -0.1166   25.1782 H   0  0  0  0  0  0  0  0  0  0  0  0
    7.4145    3.9653   27.7903 H   0  0  0  0  0  0  0  0  0  0  0  0
    7.9324    5.5741   27.2587 H   0  0  0  0  0  0  0  0  0  0  0  0
    5.6493    6.0030   28.0657 H   0  0  0  0  0  0  0  0  0  0  0  0
    3.4636    4.9516   26.5358 H   0  0  0  0  0  0  0  0  0  0  0  0
    3.5049    6.2568   27.8793 H   0  0  0  0  0  0  0  0  0  0  0  0
    3.6640    8.7805   27.2448 H   0  0  0  0  0  0  0  0  0  0  0  0
    3.2433   10.3858   25.3184 H   0  0  0  0  0  0  0  0  0  0  0  0
    2.7483    6.9525   22.5711 H   0  0  0  0  0  0  0  0  0  0  0  0
    3.2719    5.3565   24.4499 H   0  0  0  0  0  0  0  0  0  0  0  0
    1.8561    9.9235   20.8007 H   0  0  0  0  0  0  0  0  0  0  0  0
    2.3631   11.5364   21.9494 H   0  0  0  0  0  0  0  0  0  0  0  0
    2.9724   11.4347   23.6231 H   0  0  0  0  0  0  0  0  0  0  0  0
  1 32  1  0  0  0  0
  3  2  2  0  0  0  0
  3  1  1  0  0  0  0
  4  3  1  0  0  0  0
  4 33  1  1  0  0  0
  5  4  1  0  0  0  0
  5 34  1  0  0  0  0
  6  5  1  0  0  0  0
  7  6  2  0  0  0  0
  8  6  2  0  0  0  0
  9  6  1  0  0  0  0
  9 35  1  0  0  0  0
  9 36  1  0  0  0  0
 10  9  1  0  0  0  0
 11 10  2  0  0  0  0
 11 37  1  0  0  0  0
 12 11  1  0  0  0  0
 12 38  1  0  0  0  0
 13 12  2  0  0  0  0
 13 39  1  0  0  0  0
 14 13  1  0  0  0  0
 14 40  1  0  0  0  0
 15 14  2  0  0  0  0
 15 10  1  0  0  0  0
 15 41  1  0  0  0  0
 16  4  1  0  0  0  0
 16 42  1  0  0  0  0
 16 43  1  0  0  0  0
 17 16  1  0  0  0  0
 17 44  1  0  0  0  0
 18  1  1  0  0  0  0
 18 45  1  0  0  0  0
 18 46  1  0  0  0  0
 19 18  1  0  0  0  0
 20 19  1  0  0  0  0
 20 47  1  0  0  0  0
 21 19  2  0  0  0  0
 22 20  1  0  0  0  0
 22 48  1  0  0  0  0
 22 49  1  0  0  0  0
 23 22  1  0  0  0  0
 24 23  2  0  0  0  0
 24 50  1  0  0  0  0
 25 24  1  0  0  0  0
 25 51  1  0  0  0  0
 26 25  2  0  0  0  0
 27 26  1  0  0  0  0
 27 52  1  0  0  0  0
 28 26  1  0  0  0  0
 29 27  2  0  0  0  0
 29 23  1  0  0  0  0
 29 53  1  0  0  0  0
 30 28  2  0  0  0  0
 30 54  1  0  0  0  0
 31 28  1  0  0  0  0
 31 55  1  0  0  0  0
 31 56  1  0  0  0  0
M  END
$$$$
