D31
  -OEChem-02242319233D

 62 66  0     0  0  0  0  0  0999 V2000
   -9.5800   -0.0270    0.2470 N   0  0  0  0  0  0  0  0  0  0  0  0
   -8.7680   -0.9610   -0.5430 C   0  0  0  0  0  0  0  0  0  0  0  0
   -7.3980   -1.1320    0.1170 C   0  0  0  0  0  0  0  0  0  0  0  0
   -6.5960   -2.1990   -0.6340 C   0  0  0  0  0  0  0  0  0  0  0  0
   -5.1890   -2.2820   -0.0400 C   0  0  0  0  0  0  0  0  0  0  0  0
   -4.5060   -0.9940   -0.2000 N   0  0  0  0  0  0  0  0  0  0  0  0
   -5.2250   -0.0130    0.6210 C   0  0  0  0  0  0  0  0  0  0  0  0
   -6.6340    0.1950    0.0620 C   0  0  0  0  0  0  0  0  0  0  0  0
   -3.1720   -1.1460    0.3970 C   0  0  0  0  0  0  0  0  0  0  0  0
   -2.3280    0.0540    0.0530 C   0  0  0  0  0  0  0  0  0  0  0  0
   -1.0570    0.1340    0.4960 N   0  0  0  0  0  0  0  0  0  0  0  0
   -0.3190    1.2950    0.2870 C   0  0  0  0  0  0  0  0  0  0  0  0
   -0.9620    2.5260    0.2070 C   0  0  0  0  0  0  0  0  0  0  0  0
   -0.2330    3.6780    0.0000 C   0  0  0  0  0  0  0  0  0  0  0  0
    1.1460    3.6240   -0.1320 C   0  0  0  0  0  0  0  0  0  0  0  0
    1.8090    2.4070   -0.0550 C   0  0  0  0  0  0  0  0  0  0  0  0
    1.0750    1.2280    0.1620 C   0  0  0  0  0  0  0  0  0  0  0  0
    3.2490    2.0620   -0.1590 C   0  0  0  0  0  0  0  0  0  0  0  0
    3.3690    0.6100   -0.0010 C   0  0  0  0  0  0  0  0  0  0  0  0
    2.0070    0.0830    0.1980 C   0  0  0  0  0  0  0  0  0  0  0  0
    5.3660    1.4640   -0.3010 N   0  0  0  0  0  0  0  0  0  0  0  0
    4.6960    0.3120   -0.0990 C   0  0  0  0  0  0  0  0  0  0  0  0
    5.3060   -1.0620    0.0010 C   0  0  0  0  0  0  0  0  0  0  0  0
    6.0440   -1.3890   -1.2990 C   0  0  0  0  0  0  0  0  0  0  0  0
    6.6630   -2.7840   -1.1970 C   0  0  0  0  0  0  0  0  0  0  0  0
    7.6490   -2.8210   -0.0280 C   0  0  0  0  0  0  0  0  0  0  0  0
    6.9110   -2.4940    1.2720 C   0  0  0  0  0  0  0  0  0  0  0  0
    6.2920   -1.0990    1.1710 C   0  0  0  0  0  0  0  0  0  0  0  0
   -2.7910    0.9480   -0.6220 O   0  0  0  0  0  0  0  0  0  0  0  0
    1.7050   -1.0830    0.3640 O   0  0  0  0  0  0  0  0  0  0  0  0
    4.4600    2.5300   -0.3350 N   0  0  0  0  0  0  0  0  0  0  0  0
   -9.1320    0.8750    0.1800 H   0  0  0  0  0  0  0  0  0  0  0  0
  -10.4690    0.0540   -0.2230 H   0  0  0  0  0  0  0  0  0  0  0  0
   -9.2700   -1.9270   -0.5920 H   0  0  0  0  0  0  0  0  0  0  0  0
   -8.6390   -0.5670   -1.5510 H   0  0  0  0  0  0  0  0  0  0  0  0
   -7.5290   -1.4370    1.1550 H   0  0  0  0  0  0  0  0  0  0  0  0
   -7.0910   -3.1650   -0.5340 H   0  0  0  0  0  0  0  0  0  0  0  0
   -6.5300   -1.9300   -1.6890 H   0  0  0  0  0  0  0  0  0  0  0  0
   -5.2570   -2.5260    1.0200 H   0  0  0  0  0  0  0  0  0  0  0  0
   -4.6230   -3.0580   -0.5540 H   0  0  0  0  0  0  0  0  0  0  0  0
   -5.2910   -0.3780    1.6460 H   0  0  0  0  0  0  0  0  0  0  0  0
   -4.6870    0.9350    0.6080 H   0  0  0  0  0  0  0  0  0  0  0  0
   -6.5700    0.5360   -0.9710 H   0  0  0  0  0  0  0  0  0  0  0  0
   -7.1560    0.9410    0.6610 H   0  0  0  0  0  0  0  0  0  0  0  0
   -3.2650   -1.2260    1.4800 H   0  0  0  0  0  0  0  0  0  0  0  0
   -2.6990   -2.0470    0.0050 H   0  0  0  0  0  0  0  0  0  0  0  0
   -0.6580   -0.6180    0.9610 H   0  0  0  0  0  0  0  0  0  0  0  0
   -2.0360    2.5800    0.3080 H   0  0  0  0  0  0  0  0  0  0  0  0
   -0.7400    4.6300   -0.0610 H   0  0  0  0  0  0  0  0  0  0  0  0
    1.7060    4.5330   -0.2940 H   0  0  0  0  0  0  0  0  0  0  0  0
    6.3270    1.5420   -0.4060 H   0  0  0  0  0  0  0  0  0  0  0  0
    4.5180   -1.7980    0.1670 H   0  0  0  0  0  0  0  0  0  0  0  0
    5.3410   -1.3620   -2.1320 H   0  0  0  0  0  0  0  0  0  0  0  0
    6.8310   -0.6530   -1.4640 H   0  0  0  0  0  0  0  0  0  0  0  0
    5.8760   -3.5200   -1.0320 H   0  0  0  0  0  0  0  0  0  0  0  0
    7.1890   -3.0160   -2.1230 H   0  0  0  0  0  0  0  0  0  0  0  0
    8.0900   -3.8150    0.0440 H   0  0  0  0  0  0  0  0  0  0  0  0
    8.4360   -2.0850   -0.1930 H   0  0  0  0  0  0  0  0  0  0  0  0
    6.1240   -3.2300    1.4370 H   0  0  0  0  0  0  0  0  0  0  0  0
    7.6130   -2.5210    2.1050 H   0  0  0  0  0  0  0  0  0  0  0  0
    7.0790   -0.3630    1.0050 H   0  0  0  0  0  0  0  0  0  0  0  0
    5.7660   -0.8660    2.0970 H   0  0  0  0  0  0  0  0  0  0  0  0
  1  2  1  0  0  0  0
  1 32  1  0  0  0  0
  1 33  1  0  0  0  0
  2  3  1  0  0  0  0
  2 34  1  0  0  0  0
  2 35  1  0  0  0  0
  3  4  1  0  0  0  0
  3  8  1  0  0  0  0
  3 36  1  0  0  0  0
  4  5  1  0  0  0  0
  4 37  1  0  0  0  0
  4 38  1  0  0  0  0
  5  6  1  0  0  0  0
  5 39  1  0  0  0  0
  5 40  1  0  0  0  0
  6  7  1  0  0  0  0
  6  9  1  0  0  0  0
  7  8  1  0  0  0  0
  7 41  1  0  0  0  0
  7 42  1  0  0  0  0
  8 43  1  0  0  0  0
  8 44  1  0  0  0  0
  9 10  1  0  0  0  0
  9 45  1  0  0  0  0
  9 46  1  0  0  0  0
 10 11  1  0  0  0  0
 10 29  2  0  0  0  0
 11 12  1  0  0  0  0
 11 47  1  0  0  0  0
 12 13  2  0  0  0  0
 12 17  1  0  0  0  0
 13 14  1  0  0  0  0
 13 48  1  0  0  0  0
 14 15  2  0  0  0  0
 14 49  1  0  0  0  0
 15 16  1  0  0  0  0
 15 50  1  0  0  0  0
 16 17  2  0  0  0  0
 16 18  1  0  0  0  0
 17 20  1  0  0  0  0
 18 19  1  0  0  0  0
 18 31  2  0  0  0  0
 19 20  1  0  0  0  0
 19 22  2  0  0  0  0
 20 30  2  0  0  0  0
 21 22  1  0  0  0  0
 21 31  1  0  0  0  0
 21 51  1  0  0  0  0
 22 23  1  0  0  0  0
 23 24  1  0  0  0  0
 23 28  1  0  0  0  0
 23 52  1  0  0  0  0
 24 25  1  0  0  0  0
 24 53  1  0  0  0  0
 24 54  1  0  0  0  0
 25 26  1  0  0  0  0
 25 55  1  0  0  0  0
 25 56  1  0  0  0  0
 26 27  1  0  0  0  0
 26 57  1  0  0  0  0
 26 58  1  0  0  0  0
 27 28  1  0  0  0  0
 27 59  1  0  0  0  0
 27 60  1  0  0  0  0
 28 61  1  0  0  0  0
 28 62  1  0  0  0  0
M  END
> <OPENEYE_ISO_SMILES>
c1cc-2c(c(c1)NC(=O)CN3CCC(CC3)CN)C(=O)c4c2n[nH]c4C5CCCCC5

> <OPENEYE_INCHI>
InChI=1S/C24H31N5O2/c25-13-15-9-11-29(12-10-15)14-19(30)26-18-8-4-7-17-20(18)24(31)21-22(27-28-23(17)21)16-5-2-1-3-6-16/h4,7-8,15-16H,1-3,5-6,9-14,25H2,(H,26,30)(H,27,28)

> <OPENEYE_INCHIKEY>
AITZHKQVQNLKHI-UHFFFAOYSA-N

> <FORMULA>
C24H31N5O2

$$$$
