D31
  Mrv15b2303062313522D          

 31 35  0  0  0  0            999 V2000
    5.1137    2.6311    0.0000 N   0  0  0  0  0  0  0  0  0  0  0  0
    4.8743    1.8416    0.0000 C   0  0  0  0  0  0  0  0  0  0  0  0
    4.0709    1.6542    0.0000 C   0  0  0  0  0  0  0  0  0  0  0  0
    3.8314    0.8647    0.0000 C   0  0  0  0  0  0  0  0  0  0  0  0
    3.0280    0.6773    0.0000 C   0  0  0  0  0  0  0  0  0  0  0  0
    2.4640    1.2794    0.0000 N   0  0  0  0  0  0  0  0  0  0  0  0
    2.7034    2.0689    0.0000 C   0  0  0  0  0  0  0  0  0  0  0  0
    3.5068    2.2563    0.0000 C   0  0  0  0  0  0  0  0  0  0  0  0
    1.6606    1.0920    0.0000 C   0  0  0  0  0  0  0  0  0  0  0  0
    1.4211    0.3025    0.0000 C   0  0  0  0  0  0  0  0  0  0  0  0
    0.6177    0.1151    0.0000 N   0  0  0  0  0  0  0  0  0  0  0  0
    0.3783   -0.6744    0.0000 C   0  0  0  0  0  0  0  0  0  0  0  0
    0.9423   -1.2765    0.0000 C   0  0  0  0  0  0  0  0  0  0  0  0
    0.7029   -2.0660    0.0000 C   0  0  0  0  0  0  0  0  0  0  0  0
   -0.1006   -2.2534    0.0000 C   0  0  0  0  0  0  0  0  0  0  0  0
   -0.6646   -1.6513    0.0000 C   0  0  0  0  0  0  0  0  0  0  0  0
   -0.4252   -0.8618    0.0000 C   0  0  0  0  0  0  0  0  0  0  0  0
   -1.4894   -1.6676    0.0000 C   0  0  0  0  0  0  0  0  0  0  0  0
   -1.7598   -0.8881    0.0000 C   0  0  0  0  0  0  0  0  0  0  0  0
   -1.1020   -0.3901    0.0000 C   0  0  0  0  0  0  0  0  0  0  0  0
   -2.8240   -1.6939    0.0000 N   0  0  0  0  0  0  0  0  0  0  0  0
   -2.5846   -0.9044    0.0000 C   0  0  0  0  0  0  0  0  0  0  0  0
   -3.0826   -0.2466    0.0000 C   0  0  0  0  0  0  0  0  0  0  0  0
   -3.9012   -0.3490    0.0000 C   0  0  0  0  0  0  0  0  0  0  0  0
   -4.3992    0.3087    0.0000 C   0  0  0  0  0  0  0  0  0  0  0  0
   -4.0786    1.0689    0.0000 C   0  0  0  0  0  0  0  0  0  0  0  0
   -3.2600    1.1712    0.0000 C   0  0  0  0  0  0  0  0  0  0  0  0
   -2.7620    0.5135    0.0000 C   0  0  0  0  0  0  0  0  0  0  0  0
    1.9851   -0.2996    0.0000 O   0  0  0  0  0  0  0  0  0  0  0  0
   -1.1183    0.4347    0.0000 O   0  0  0  0  0  0  0  0  0  0  0  0
   -2.1472   -2.1656    0.0000 N   0  0  0  0  0  0  0  0  0  0  0  0
  1  2  1  0  0  0  0
  2  3  1  0  0  0  0
  3  4  1  0  0  0  0
  3  8  1  0  0  0  0
  4  5  1  0  0  0  0
  5  6  1  0  0  0  0
  6  7  1  0  0  0  0
  6  9  1  0  0  0  0
  7  8  1  0  0  0  0
  9 10  1  0  0  0  0
 10 11  1  0  0  0  0
 10 29  2  0  0  0  0
 11 12  1  0  0  0  0
 12 13  4  0  0  0  0
 12 17  4  0  0  0  0
 13 14  4  0  0  0  0
 14 15  4  0  0  0  0
 15 16  4  0  0  0  0
 16 17  4  0  0  0  0
 16 18  1  0  0  0  0
 17 20  1  0  0  0  0
 18 19  4  0  0  0  0
 18 31  4  0  0  0  0
 19 20  1  0  0  0  0
 19 22  4  0  0  0  0
 20 30  2  0  0  0  0
 21 22  4  0  0  0  0
 21 31  4  0  0  0  0
 22 23  1  0  0  0  0
 23 24  1  0  0  0  0
 23 28  1  0  0  0  0
 24 25  1  0  0  0  0
 25 26  1  0  0  0  0
 26 27  1  0  0  0  0
 27 28  1  0  0  0  0
M  STY  1   1 DAT
M  SAL   1  1  21
M  SDT   1 MRV_IMPLICIT_H                                        
M  SDD   1     0.0000    0.0000    DR    ALL  0       0  
M  SED   1 IMPL_H1
M  END
