@<TRIPOS>MOLECULE
D31
 62 66 0 0 0
SMALL
GASTEIGER

@<TRIPOS>ATOM
      1 N          -9.5800   -0.0270    0.2470 N.3     1  LIG1       -0.3297
      2 C          -8.7680   -0.9610   -0.5430 C.3     1  LIG1       -0.0040
      3 C          -7.3980   -1.1320    0.1170 C.3     1  LIG1       -0.0264
      4 C          -6.5960   -2.1990   -0.6340 C.3     1  LIG1       -0.0362
      5 C          -5.1890   -2.2820   -0.0400 C.3     1  LIG1       -0.0003
      6 N          -4.5060   -0.9940   -0.2000 N.3     1  LIG1       -0.2940
      7 C          -5.2250   -0.0130    0.6210 C.3     1  LIG1       -0.0003
      8 C          -6.6340    0.1950    0.0620 C.3     1  LIG1       -0.0362
      9 C          -3.1720   -1.1460    0.3970 C.3     1  LIG1        0.0760
     10 C          -2.3280    0.0540    0.0530 C.2     1  LIG1        0.2313
     11 N          -1.0570    0.1340    0.4960 N.am    1  LIG1       -0.2838
     12 C          -0.3190    1.2950    0.2870 C.ar    1  LIG1        0.0449
     13 C          -0.9620    2.5260    0.2070 C.ar    1  LIG1       -0.0397
     14 C          -0.2330    3.6780    0.0000 C.ar    1  LIG1       -0.0593
     15 C           1.1460    3.6240   -0.1320 C.ar    1  LIG1       -0.0517
     16 C           1.8090    2.4070   -0.0550 C.ar    1  LIG1        0.0154
     17 C           1.0750    1.2280    0.1620 C.ar    1  LIG1        0.0528
     18 C           3.2490    2.0620   -0.1590 C.ar    1  LIG1        0.1043
     19 C           3.3690    0.6100   -0.0010 C.ar    1  LIG1        0.0708
     20 C           2.0070    0.0830    0.1980 C.2     1  LIG1        0.1994
     21 N           5.3660    1.4640   -0.3010 N.ar    1  LIG1       -0.2800
     22 C           4.6960    0.3120   -0.0990 C.ar    1  LIG1        0.0506
     23 C           5.3060   -1.0620    0.0010 C.3     1  LIG1        0.0015
     24 C           6.0440   -1.3890   -1.2990 C.3     1  LIG1       -0.0448
     25 C           6.6630   -2.7840   -1.1970 C.3     1  LIG1       -0.0525
     26 C           7.6490   -2.8210   -0.0280 C.3     1  LIG1       -0.0530
     27 C           6.9110   -2.4940    1.2720 C.3     1  LIG1       -0.0525
     28 C           6.2920   -1.0990    1.1710 C.3     1  LIG1       -0.0448
     29 O          -2.7910    0.9480   -0.6220 O.2     1  LIG1       -0.2741
     30 O           1.7050   -1.0830    0.3640 O.2     1  LIG1       -0.2864
     31 N           4.4600    2.5300   -0.3350 N.ar    1  LIG1       -0.1729
     32 H          -9.1320    0.8750    0.1800 H       1  LIG1        0.1182
     33 H         -10.4690    0.0540   -0.2230 H       1  LIG1        0.1182
     34 H          -9.2700   -1.9270   -0.5920 H       1  LIG1        0.0425
     35 H          -8.6390   -0.5670   -1.5510 H       1  LIG1        0.0425
     36 H          -7.5290   -1.4370    1.1550 H       1  LIG1        0.0314
     37 H          -7.0910   -3.1650   -0.5340 H       1  LIG1        0.0281
     38 H          -6.5300   -1.9300   -1.6890 H       1  LIG1        0.0281
     39 H          -5.2570   -2.5260    1.0200 H       1  LIG1        0.0427
     40 H          -4.6230   -3.0580   -0.5540 H       1  LIG1        0.0427
     41 H          -5.2910   -0.3780    1.6460 H       1  LIG1        0.0427
     42 H          -4.6870    0.9350    0.6080 H       1  LIG1        0.0427
     43 H          -6.5700    0.5360   -0.9710 H       1  LIG1        0.0281
     44 H          -7.1560    0.9410    0.6610 H       1  LIG1        0.0281
     45 H          -3.2650   -1.2260    1.4800 H       1  LIG1        0.0522
     46 H          -2.6990   -2.0470    0.0050 H       1  LIG1        0.0522
     47 H          -0.6580   -0.6180    0.9610 H       1  LIG1        0.1549
     48 H          -2.0360    2.5800    0.3080 H       1  LIG1        0.0636
     49 H          -0.7400    4.6300   -0.0610 H       1  LIG1        0.0618
     50 H           1.7060    4.5330   -0.2940 H       1  LIG1        0.0624
     51 H           6.3270    1.5420   -0.4060 H       1  LIG1        0.1886
     52 H           4.5180   -1.7980    0.1670 H       1  LIG1        0.0364
     53 H           5.3410   -1.3620   -2.1320 H       1  LIG1        0.0272
     54 H           6.8310   -0.6530   -1.4640 H       1  LIG1        0.0272
     55 H           5.8760   -3.5200   -1.0320 H       1  LIG1        0.0265
     56 H           7.1890   -3.0160   -2.1230 H       1  LIG1        0.0265
     57 H           8.0900   -3.8150    0.0440 H       1  LIG1        0.0265
     58 H           8.4360   -2.0850   -0.1930 H       1  LIG1        0.0265
     59 H           6.1240   -3.2300    1.4370 H       1  LIG1        0.0265
     60 H           7.6130   -2.5210    2.1050 H       1  LIG1        0.0265
     61 H           7.0790   -0.3630    1.0050 H       1  LIG1        0.0272
     62 H           5.7660   -0.8660    2.0970 H       1  LIG1        0.0272
@<TRIPOS>BOND
     1     1     2    1
     2     1    32    1
     3     1    33    1
     4     2     3    1
     5     2    34    1
     6     2    35    1
     7     3     4    1
     8     3     8    1
     9     3    36    1
    10     4     5    1
    11     4    37    1
    12     4    38    1
    13     5     6    1
    14     5    39    1
    15     5    40    1
    16     6     7    1
    17     6     9    1
    18     7     8    1
    19     7    41    1
    20     7    42    1
    21     8    43    1
    22     8    44    1
    23     9    10    1
    24     9    45    1
    25     9    46    1
    26    10    11   am
    27    10    29    2
    28    11    12    1
    29    11    47    1
    30    12    13   ar
    31    12    17   ar
    32    13    14   ar
    33    13    48    1
    34    14    15   ar
    35    14    49    1
    36    15    16   ar
    37    15    50    1
    38    16    17   ar
    39    16    18    1
    40    17    20    1
    41    18    19   ar
    42    18    31   ar
    43    19    20    1
    44    19    22   ar
    45    20    30    2
    46    21    22   ar
    47    21    31   ar
    48    21    51    1
    49    22    23    1
    50    23    24    1
    51    23    28    1
    52    23    52    1
    53    24    25    1
    54    24    53    1
    55    24    54    1
    56    25    26    1
    57    25    55    1
    58    25    56    1
    59    26    27    1
    60    26    57    1
    61    26    58    1
    62    27    28    1
    63    27    59    1
    64    27    60    1
    65    28    61    1
    66    28    62    1
