@<TRIPOS>MOLECULE
LX9
 53 58 0 0 0
SMALL
GASTEIGER

@<TRIPOS>ATOM
      1 N          85.6780  259.0030  113.5800 N.ar    1  UNL1       -0.2375
      2 N          84.3460  258.8060  113.5980 N.ar    1  UNL1       -0.1511
      3 C          83.7610  259.4590  112.6700 C.ar    1  UNL1        0.1462
      4 C          84.8450  260.1460  111.9520 C.ar    1  UNL1        0.0415
      5 C          85.9660  259.8300  112.6110 C.ar    1  UNL1        0.0408
      6 N          82.4750  259.4680  112.4430 N.pl3   1  UNL1       -0.3412
      7 C          86.5820  258.5000  114.4320 C.ar    1  UNL1        0.0660
      8 C          87.8410  259.1070  114.4710 C.ar    1  UNL1       -0.0285
      9 C          88.8430  258.6090  115.3100 C.ar    1  UNL1       -0.0158
     10 C          88.5810  257.4810  116.0910 C.ar    1  UNL1       -0.0539
     11 C          87.3230  256.8700  116.0530 C.ar    1  UNL1       -0.0592
     12 C          86.3260  257.3680  115.2150 C.ar    1  UNL1       -0.0362
     13 C          90.1900  259.2470  115.3420 C.ar    1  UNL1       -0.0158
     14 C          90.2800  260.6460  115.4130 C.ar    1  UNL1       -0.0301
     15 C          91.5570  261.2040  115.4150 C.ar    1  UNL1        0.0470
     16 N          91.9080  262.5030  115.4940 N.ar    1  UNL1       -0.3606
     17 C          92.7060  260.4180  115.3480 C.ar    1  UNL1       -0.0003
     18 C          93.2100  262.6380  115.4800 C.ar    1  UNL1        0.0027
     19 C          93.8190  261.4340  115.3890 C.ar    1  UNL1       -0.0367
     20 C          92.6500  259.0250  115.2660 C.ar    1  UNL1       -0.0520
     21 C          91.3630  258.4600  115.2540 C.ar    1  UNL1       -0.0533
     22 C          84.8050  261.1200  110.7930 C.ar    1  UNL1       -0.0128
     23 C          83.6590  261.8320  110.4790 C.ar    1  UNL1       -0.0499
     24 C          83.6420  262.6780  109.3790 C.ar    1  UNL1       -0.0332
     25 C          84.7820  262.8110  108.5680 C.ar    1  UNL1        0.0399
     26 C          82.3670  263.4770  109.0660 C.3     1  UNL1       -0.0113
     27 C          85.9260  262.0830  108.8660 C.ar    1  UNL1       -0.0488
     28 C          84.7430  263.7150  107.3500 C.2     1  UNL1        0.2443
     29 C          85.9290  261.2380  109.9730 C.ar    1  UNL1       -0.0531
     30 N          83.5330  264.1520  106.9200 N.am    1  UNL1       -0.3110
     31 O          85.7760  263.9750  106.7310 O.2     1  UNL1       -0.2702
     32 C          82.2610  263.8320  107.5660 C.3     1  UNL1        0.0159
     33 H          86.9717  260.2074  112.3739 H       1  UNL1        0.0837
     34 H          82.0928  260.0278  111.6675 H       1  UNL1        0.1438
     35 H          81.8429  258.9153  113.0395 H       1  UNL1        0.1438
     36 H          88.0448  259.9826  113.8372 H       1  UNL1        0.0645
     37 H          89.3686  257.0705  116.7399 H       1  UNL1        0.0624
     38 H          87.1198  255.9939  116.6863 H       1  UNL1        0.0618
     39 H          85.3441  256.8743  115.1694 H       1  UNL1        0.0639
     40 H          89.3797  261.2759  115.4649 H       1  UNL1        0.0644
     41 H          91.2407  263.2851  115.5570 H       1  UNL1        0.1653
     42 H          93.7379  263.6015  115.5349 H       1  UNL1        0.0807
     43 H          94.9006  261.2371  115.3525 H       1  UNL1        0.0638
     44 H          93.5585  258.4070  115.2139 H       1  UNL1        0.0624
     45 H          91.2640  257.3674  115.1734 H       1  UNL1        0.0624
     46 H          82.7596  261.7265  111.1035 H       1  UNL1        0.0627
     47 H          81.4916  262.8752  109.3514 H       1  UNL1        0.0329
     48 H          82.4061  264.4170  109.6360 H       1  UNL1        0.0329
     49 H          86.8216  262.1728  108.2337 H       1  UNL1        0.0625
     50 H          86.8317  260.6539  110.2052 H       1  UNL1        0.0624
     51 H          83.5086  264.7498  106.0816 H       1  UNL1        0.1490
     52 H          81.5980  264.7041  107.4668 H       1  UNL1        0.0465
     53 H          81.8752  262.9337  107.0618 H       1  UNL1        0.0465
@<TRIPOS>BOND
     1     2     1   ar
     2     3     2   ar
     3     4     3   ar
     4     5     4   ar
     5     5     1   ar
     6     6     3    1
     7     7     1    1
     8     8     7   ar
     9     9     8   ar
    10    10     9   ar
    11    11    10   ar
    12    12     7   ar
    13    12    11   ar
    14    13     9    1
    15    14    13   ar
    16    15    14   ar
    17    16    15   ar
    18    17    15   ar
    19    18    16   ar
    20    19    17   ar
    21    19    18   ar
    22    20    17   ar
    23    21    13   ar
    24    21    20   ar
    25    22     4    1
    26    23    22   ar
    27    24    23   ar
    28    25    24   ar
    29    26    24    1
    30    27    25   ar
    31    28    25    1
    32    29    22   ar
    33    29    27   ar
    34    30    28   am
    35    31    28    2
    36    32    30    1
    37    32    26    1
    38     5    33    1
    39     6    34    1
    40     6    35    1
    41     8    36    1
    42    10    37    1
    43    11    38    1
    44    12    39    1
    45    14    40    1
    46    16    41    1
    47    18    42    1
    48    19    43    1
    49    20    44    1
    50    21    45    1
    51    23    46    1
    52    26    47    1
    53    26    48    1
    54    27    49    1
    55    29    50    1
    56    30    51    1
    57    32    52    1
    58    32    53    1
