@<TRIPOS>MOLECULE
547
 56 60 0 0 0
SMALL
GASTEIGER

@<TRIPOS>ATOM
      1 C          19.8300   36.7050   87.0350 C.ar    1  UNL1        0.0332
      2 N          20.9030   36.1100   86.4530 N.ar    1  UNL1       -0.2204
      3 C          21.9100   36.8350   85.8310 C.ar    1  UNL1        0.2302
      4 C          21.8720   38.2490   85.7880 C.ar    1  UNL1        0.0689
      5 C          20.7310   38.9210   86.4160 C.ar    1  UNL1        0.0417
      6 C          19.7130   38.1180   87.0460 C.ar    1  UNL1       -0.0219
      7 O          23.0190   36.3390   85.2240 O.2     1  UNL1       -0.4361
      8 C          23.7160   37.4370   84.7590 C.ar    1  UNL1        0.1459
      9 C          22.9940   38.7220   85.1130 C.ar    1  UNL1        0.0391
     10 N          20.6560   40.2990   86.4040 N.pl3   1  UNL1       -0.3420
     11 C          20.5610   41.1010   87.6170 C.3     1  UNL1        0.0219
     12 C          21.8470   41.8790   87.9140 C.3     1  UNL1        0.0145
     13 N          22.4960   41.5540   89.2090 N.3     1  UNL1       -0.2984
     14 C          21.6920   42.2460   90.2530 C.3     1  UNL1        0.0115
     15 C          22.2900   41.9790   91.6470 C.3     1  UNL1        0.0087
     16 N          23.7150   42.4220   91.6600 N.3     1  UNL1       -0.3136
     17 C          24.5230   41.7290   90.6080 C.3     1  UNL1        0.0087
     18 C          23.9030   42.0440   89.2290 C.3     1  UNL1        0.0115
     19 C          23.3270   40.1430   84.8440 C.ar    1  UNL1       -0.0136
     20 C          22.6840   40.8490   83.7700 C.ar    1  UNL1       -0.0539
     21 C          23.0310   42.2150   83.5150 C.ar    1  UNL1       -0.0612
     22 C          24.0240   42.8670   84.3370 C.ar    1  UNL1       -0.0617
     23 C          24.6710   42.1610   85.4200 C.ar    1  UNL1       -0.0612
     24 C          24.3220   40.7950   85.6710 C.ar    1  UNL1       -0.0539
     25 C          25.0100   37.2820   84.0190 C.ar    1  UNL1        0.0180
     26 C          25.0750   36.3150   82.9590 C.ar    1  UNL1       -0.0511
     27 C          26.2960   36.1500   82.2210 C.ar    1  UNL1       -0.0611
     28 C          27.4510   36.9620   82.5400 C.ar    1  UNL1       -0.0617
     29 C          27.3970   37.9260   83.5960 C.ar    1  UNL1       -0.0611
     30 C          26.1850   38.0810   84.3240 C.ar    1  UNL1       -0.0511
     31 H          19.0475   36.0876   87.5003 H       1  UNL1        0.0831
     32 H          18.8510   38.5983   87.5321 H       1  UNL1        0.0651
     33 H          20.6677   40.7833   85.4950 H       1  UNL1        0.1461
     34 H          19.7349   41.8180   87.5010 H       1  UNL1        0.0474
     35 H          20.3876   40.4128   88.4574 H       1  UNL1        0.0474
     36 H          22.5668   41.6670   87.1097 H       1  UNL1        0.0442
     37 H          21.5566   42.9382   87.9748 H       1  UNL1        0.0442
     38 H          21.6959   43.3284   90.0569 H       1  UNL1        0.0439
     39 H          20.6610   41.8636   90.2249 H       1  UNL1        0.0439
     40 H          21.7230   42.5398   92.4046 H       1  UNL1        0.0437
     41 H          22.2339   40.9043   91.8747 H       1  UNL1        0.0437
     42 H          23.7498   43.4376   91.4918 H       1  UNL1        0.1220
     43 H          25.5615   42.0903   90.6394 H       1  UNL1        0.0437
     44 H          24.5200   40.6432   90.7840 H       1  UNL1        0.0437
     45 H          23.9181   43.1303   89.0568 H       1  UNL1        0.0439
     46 H          24.4823   41.5461   88.4375 H       1  UNL1        0.0439
     47 H          21.9305   40.3437   83.1480 H       1  UNL1        0.0624
     48 H          22.5435   42.7653   82.6968 H       1  UNL1        0.0618
     49 H          24.2915   43.9149   84.1361 H       1  UNL1        0.0618
     50 H          25.4225   42.6671   86.0439 H       1  UNL1        0.0618
     51 H          24.8077   40.2426   86.4889 H       1  UNL1        0.0624
     52 H          24.1940   35.7038   82.7136 H       1  UNL1        0.0625
     53 H          26.3535   35.4060   81.4128 H       1  UNL1        0.0618
     54 H          28.3801   36.8367   81.9645 H       1  UNL1        0.0618
     55 H          28.2783   38.5371   83.8407 H       1  UNL1        0.0618
     56 H          26.1359   38.8218   85.1356 H       1  UNL1        0.0625
@<TRIPOS>BOND
     1     2     1   ar
     2     3     2   ar
     3     4     3   ar
     4     5     4   ar
     5     6     1   ar
     6     6     5   ar
     7     7     3   ar
     8     8     7   ar
     9     9     8   ar
    10     9     4   ar
    11    10     5    1
    12    11    10    1
    13    12    11    1
    14    13    12    1
    15    14    13    1
    16    15    14    1
    17    16    15    1
    18    17    16    1
    19    18    17    1
    20    18    13    1
    21    19     9    1
    22    20    19   ar
    23    21    20   ar
    24    22    21   ar
    25    23    22   ar
    26    24    23   ar
    27    24    19   ar
    28    25     8    1
    29    26    25   ar
    30    27    26   ar
    31    28    27   ar
    32    29    28   ar
    33    30    25   ar
    34    30    29   ar
    35     1    31    1
    36     6    32    1
    37    10    33    1
    38    11    34    1
    39    11    35    1
    40    12    36    1
    41    12    37    1
    42    14    38    1
    43    14    39    1
    44    15    40    1
    45    15    41    1
    46    16    42    1
    47    17    43    1
    48    17    44    1
    49    18    45    1
    50    18    46    1
    51    20    47    1
    52    21    48    1
    53    22    49    1
    54    23    50    1
    55    24    51    1
    56    26    52    1
    57    27    53    1
    58    28    54    1
    59    29    55    1
    60    30    56    1
