D42
  Mrv15b2303062314022D          

 31 35  0  0  0  0            999 V2000
    4.0684    0.8121    0.0000 C   0  0  0  0  0  0  0  0  0  0  0  0
    3.2649    0.6247    0.0000 C   0  0  0  0  0  0  0  0  0  0  0  0
    2.7009    1.2268    0.0000 N   0  0  0  0  0  0  0  0  0  0  0  0
    2.9404    2.0163    0.0000 C   0  0  0  0  0  0  0  0  0  0  0  0
    3.7438    2.2037    0.0000 C   0  0  0  0  0  0  0  0  0  0  0  0
    4.3078    1.6016    0.0000 N   0  0  0  0  0  0  0  0  0  0  0  0
    5.1112    1.7890    0.0000 C   0  0  0  0  0  0  0  0  0  0  0  0
    1.8975    1.0394    0.0000 N   0  0  0  0  0  0  0  0  0  0  0  0
    1.6581    0.2499    0.0000 C   0  0  0  0  0  0  0  0  0  0  0  0
    0.8546    0.0625    0.0000 N   0  0  0  0  0  0  0  0  0  0  0  0
    0.6152   -0.7270    0.0000 C   0  0  0  0  0  0  0  0  0  0  0  0
    1.1792   -1.3291    0.0000 C   0  0  0  0  0  0  0  0  0  0  0  0
    0.9398   -2.1186    0.0000 C   0  0  0  0  0  0  0  0  0  0  0  0
    0.1364   -2.3060    0.0000 C   0  0  0  0  0  0  0  0  0  0  0  0
   -0.4276   -1.7039    0.0000 C   0  0  0  0  0  0  0  0  0  0  0  0
   -0.1882   -0.9144    0.0000 C   0  0  0  0  0  0  0  0  0  0  0  0
   -1.2525   -1.7202    0.0000 C   0  0  0  0  0  0  0  0  0  0  0  0
   -1.5228   -0.9407    0.0000 C   0  0  0  0  0  0  0  0  0  0  0  0
   -0.8651   -0.4427    0.0000 C   0  0  0  0  0  0  0  0  0  0  0  0
   -1.9102   -2.2182    0.0000 N   0  0  0  0  0  0  0  0  0  0  0  0
   -2.5871   -1.7465    0.0000 N   0  0  0  0  0  0  0  0  0  0  0  0
   -2.3477   -0.9570    0.0000 C   0  0  0  0  0  0  0  0  0  0  0  0
   -2.8457   -0.2992    0.0000 C   0  0  0  0  0  0  0  0  0  0  0  0
   -3.6705   -0.3155    0.0000 S   0  0  0  0  0  0  0  0  0  0  0  0
   -3.9409    0.4639    0.0000 C   0  0  0  0  0  0  0  0  0  0  0  0
   -3.2831    0.9619    0.0000 N   0  0  0  0  0  0  0  0  0  0  0  0
   -2.6062    0.4903    0.0000 C   0  0  0  0  0  0  0  0  0  0  0  0
   -1.8268    0.7606    0.0000 C   0  0  0  0  0  0  0  0  0  0  0  0
   -4.7303    0.7034    0.0000 C   0  0  0  0  0  0  0  0  0  0  0  0
    2.2221   -0.3522    0.0000 O   0  0  0  0  0  0  0  0  0  0  0  0
   -0.8813    0.3821    0.0000 O   0  0  0  0  0  0  0  0  0  0  0  0
  1  2  1  0  0  0  0
  1  6  1  0  0  0  0
  2  3  1  0  0  0  0
  3  4  1  0  0  0  0
  3  8  1  0  0  0  0
  4  5  1  0  0  0  0
  5  6  1  0  0  0  0
  6  7  1  0  0  0  0
  8  9  1  0  0  0  0
  9 10  1  0  0  0  0
  9 30  2  0  0  0  0
 10 11  1  0  0  0  0
 11 12  4  0  0  0  0
 11 16  4  0  0  0  0
 12 13  4  0  0  0  0
 13 14  4  0  0  0  0
 14 15  4  0  0  0  0
 15 16  4  0  0  0  0
 15 17  1  0  0  0  0
 16 19  1  0  0  0  0
 17 18  4  0  0  0  0
 17 20  4  0  0  0  0
 18 19  1  0  0  0  0
 18 22  4  0  0  0  0
 19 31  2  0  0  0  0
 20 21  4  0  0  0  0
 21 22  4  0  0  0  0
 22 23  1  0  0  0  0
 23 24  4  0  0  0  0
 23 27  4  0  0  0  0
 24 25  4  0  0  0  0
 25 26  4  0  0  0  0
 25 29  1  0  0  0  0
 26 27  4  0  0  0  0
 27 28  1  0  0  0  0
M  STY  1   1 DAT
M  SAL   1  1  21
M  SDT   1 MRV_IMPLICIT_H                                        
M  SDD   1     0.0000    0.0000    DR    ALL  0       0  
M  SED   1 IMPL_H1
M  END
