D42
  -OEChem-02242319233D

 54 58  0     0  0  0  0  0  0999 V2000
    4.2300    2.9800    0.6220 C   0  0  0  0  0  0  0  0  0  0  0  0
    4.4350    1.5570    1.1430 C   0  0  0  0  0  0  0  0  0  0  0  0
    4.1270    0.5930    0.0790 N   0  0  0  0  0  0  0  0  0  0  0  0
    5.0660    0.8560   -1.0190 C   0  0  0  0  0  0  0  0  0  0  0  0
    4.8610    2.2800   -1.5400 C   0  0  0  0  0  0  0  0  0  0  0  0
    5.1690    3.2430   -0.4760 N   0  0  0  0  0  0  0  0  0  0  0  0
    4.8390    4.5740   -1.0040 C   0  0  0  0  0  0  0  0  0  0  0  0
    4.4340   -0.6440    0.5700 N   0  0  0  0  0  0  0  0  0  0  0  0
    3.4970   -1.6120    0.5910 C   0  0  0  0  0  0  0  0  0  0  0  0
    2.2880   -1.3920    0.0370 N   0  0  0  0  0  0  0  0  0  0  0  0
    1.3630   -2.4290   -0.0490 C   0  0  0  0  0  0  0  0  0  0  0  0
    1.7980   -3.7490   -0.1220 C   0  0  0  0  0  0  0  0  0  0  0  0
    0.8840   -4.7780   -0.2070 C   0  0  0  0  0  0  0  0  0  0  0  0
   -0.4760   -4.5120   -0.2210 C   0  0  0  0  0  0  0  0  0  0  0  0
   -0.9330   -3.2030   -0.1480 C   0  0  0  0  0  0  0  0  0  0  0  0
   -0.0090   -2.1470   -0.0560 C   0  0  0  0  0  0  0  0  0  0  0  0
   -2.3050   -2.6370   -0.1430 C   0  0  0  0  0  0  0  0  0  0  0  0
   -2.1800   -1.1790   -0.0490 C   0  0  0  0  0  0  0  0  0  0  0  0
   -0.7470   -0.8700    0.0020 C   0  0  0  0  0  0  0  0  0  0  0  0
   -3.5840   -2.9170   -0.1890 N   0  0  0  0  0  0  0  0  0  0  0  0
   -4.3270   -1.7340   -0.1300 N   0  0  0  0  0  0  0  0  0  0  0  0
   -3.4760   -0.6700   -0.0450 C   0  0  0  0  0  0  0  0  0  0  0  0
   -3.8550    0.7450    0.0360 C   0  0  0  0  0  0  0  0  0  0  0  0
   -3.1490    2.0640    1.0130 S   0  0  0  0  0  0  0  0  0  0  0  0
   -4.2050    3.3330    0.4760 C   0  0  0  0  0  0  0  0  0  0  0  0
   -4.9920    2.7060   -0.3720 N   0  0  0  0  0  0  0  0  0  0  0  0
   -4.8520    1.4280   -0.6250 C   0  0  0  0  0  0  0  0  0  0  0  0
   -5.7620    0.7250   -1.6000 C   0  0  0  0  0  0  0  0  0  0  0  0
   -4.2170    4.7850    0.8790 C   0  0  0  0  0  0  0  0  0  0  0  0
    3.7410   -2.6830    1.1120 O   0  0  0  0  0  0  0  0  0  0  0  0
   -0.2550    0.2410    0.0830 O   0  0  0  0  0  0  0  0  0  0  0  0
    4.4080    3.6910    1.4290 H   0  0  0  0  0  0  0  0  0  0  0  0
    3.2080    3.0910    0.2600 H   0  0  0  0  0  0  0  0  0  0  0  0
    3.7740    1.3830    1.9920 H   0  0  0  0  0  0  0  0  0  0  0  0
    5.4710    1.4310    1.4580 H   0  0  0  0  0  0  0  0  0  0  0  0
    4.8880    0.1460   -1.8260 H   0  0  0  0  0  0  0  0  0  0  0  0
    6.0880    0.7460   -0.6570 H   0  0  0  0  0  0  0  0  0  0  0  0
    3.8260    2.4050   -1.8550 H   0  0  0  0  0  0  0  0  0  0  0  0
    5.5220    2.4530   -2.3890 H   0  0  0  0  0  0  0  0  0  0  0  0
    3.7810    4.6090   -1.2650 H   0  0  0  0  0  0  0  0  0  0  0  0
    5.0510    5.3280   -0.2460 H   0  0  0  0  0  0  0  0  0  0  0  0
    5.4390    4.7720   -1.8920 H   0  0  0  0  0  0  0  0  0  0  0  0
    5.3270   -0.8260    0.9020 H   0  0  0  0  0  0  0  0  0  0  0  0
    2.0630   -0.5120   -0.3030 H   0  0  0  0  0  0  0  0  0  0  0  0
    2.8560   -3.9680   -0.1130 H   0  0  0  0  0  0  0  0  0  0  0  0
    1.2300   -5.7990   -0.2640 H   0  0  0  0  0  0  0  0  0  0  0  0
   -1.1830   -5.3260   -0.2880 H   0  0  0  0  0  0  0  0  0  0  0  0
   -5.2950   -1.6780   -0.1480 H   0  0  0  0  0  0  0  0  0  0  0  0
   -5.3330    0.7790   -2.6000 H   0  0  0  0  0  0  0  0  0  0  0  0
   -5.8710   -0.3190   -1.3060 H   0  0  0  0  0  0  0  0  0  0  0  0
   -6.7390    1.2080   -1.5970 H   0  0  0  0  0  0  0  0  0  0  0  0
   -3.5690    5.3530    0.2110 H   0  0  0  0  0  0  0  0  0  0  0  0
   -5.2340    5.1720    0.8140 H   0  0  0  0  0  0  0  0  0  0  0  0
   -3.8570    4.8810    1.9030 H   0  0  0  0  0  0  0  0  0  0  0  0
  1  2  1  0  0  0  0
  1  6  1  0  0  0  0
  1 32  1  0  0  0  0
  1 33  1  0  0  0  0
  2  3  1  0  0  0  0
  2 34  1  0  0  0  0
  2 35  1  0  0  0  0
  3  4  1  0  0  0  0
  3  8  1  0  0  0  0
  4  5  1  0  0  0  0
  4 36  1  0  0  0  0
  4 37  1  0  0  0  0
  5  6  1  0  0  0  0
  5 38  1  0  0  0  0
  5 39  1  0  0  0  0
  6  7  1  0  0  0  0
  7 40  1  0  0  0  0
  7 41  1  0  0  0  0
  7 42  1  0  0  0  0
  8  9  1  0  0  0  0
  8 43  1  0  0  0  0
  9 10  1  0  0  0  0
  9 30  2  0  0  0  0
 10 11  1  0  0  0  0
 10 44  1  0  0  0  0
 11 12  2  0  0  0  0
 11 16  1  0  0  0  0
 12 13  1  0  0  0  0
 12 45  1  0  0  0  0
 13 14  2  0  0  0  0
 13 46  1  0  0  0  0
 14 15  1  0  0  0  0
 14 47  1  0  0  0  0
 15 16  2  0  0  0  0
 15 17  1  0  0  0  0
 16 19  1  0  0  0  0
 17 18  1  0  0  0  0
 17 20  2  0  0  0  0
 18 19  1  0  0  0  0
 18 22  2  0  0  0  0
 19 31  2  0  0  0  0
 20 21  1  0  0  0  0
 21 22  1  0  0  0  0
 21 48  1  0  0  0  0
 22 23  1  0  0  0  0
 23 24  1  0  0  0  0
 23 27  2  0  0  0  0
 24 25  1  0  0  0  0
 25 26  2  0  0  0  0
 25 29  1  0  0  0  0
 26 27  1  0  0  0  0
 27 28  1  0  0  0  0
 28 49  1  0  0  0  0
 28 50  1  0  0  0  0
 28 51  1  0  0  0  0
 29 52  1  0  0  0  0
 29 53  1  0  0  0  0
 29 54  1  0  0  0  0
M  END
> <OPENEYE_ISO_SMILES>
Cc1c(sc(n1)C)c2c3c(n[nH]2)-c4cccc(c4C3=O)NC(=O)NN5CCN(CC5)C

> <OPENEYE_INCHI>
InChI=1S/C21H23N7O2S/c1-11-20(31-12(2)22-11)18-16-17(24-25-18)13-5-4-6-14(15(13)19(16)29)23-21(30)26-28-9-7-27(3)8-10-28/h4-6H,7-10H2,1-3H3,(H,24,25)(H2,23,26,30)

> <OPENEYE_INCHIKEY>
KRKQVGZXTNLQSV-UHFFFAOYSA-N

> <FORMULA>
C21H23N7O2S

$$$$
