@<TRIPOS>MOLECULE
D42
 54 58 0 0 0
SMALL
GASTEIGER

@<TRIPOS>ATOM
      1 C           4.2300    2.9800    0.6220 C.3     1  LIG1        0.0130
      2 C           4.4350    1.5570    1.1430 C.3     1  LIG1        0.0295
      3 N           4.1270    0.5930    0.0790 N.3     1  LIG1       -0.2234
      4 C           5.0660    0.8560   -1.0190 C.3     1  LIG1        0.0295
      5 C           4.8610    2.2800   -1.5400 C.3     1  LIG1        0.0130
      6 N           5.1690    3.2430   -0.4760 N.3     1  LIG1       -0.3028
      7 C           4.8390    4.5740   -1.0040 C.3     1  LIG1       -0.0127
      8 N           4.4340   -0.6440    0.5700 N.am    1  LIG1       -0.2318
      9 C           3.4970   -1.6120    0.5910 C.2     1  LIG1        0.3178
     10 N           2.2880   -1.3920    0.0370 N.am    1  LIG1       -0.2678
     11 C           1.3630   -2.4290   -0.0490 C.ar    1  LIG1        0.0463
     12 C           1.7980   -3.7490   -0.1220 C.ar    1  LIG1       -0.0397
     13 C           0.8840   -4.7780   -0.2070 C.ar    1  LIG1       -0.0593
     14 C          -0.4760   -4.5120   -0.2210 C.ar    1  LIG1       -0.0517
     15 C          -0.9330   -3.2030   -0.1480 C.ar    1  LIG1        0.0154
     16 C          -0.0090   -2.1470   -0.0560 C.ar    1  LIG1        0.0528
     17 C          -2.3050   -2.6370   -0.1430 C.ar    1  LIG1        0.1047
     18 C          -2.1800   -1.1790   -0.0490 C.ar    1  LIG1        0.0758
     19 C          -0.7470   -0.8700    0.0020 C.2     1  LIG1        0.1997
     20 N          -3.5840   -2.9170   -0.1890 N.ar    1  LIG1       -0.1726
     21 N          -4.3270   -1.7340   -0.1300 N.ar    1  LIG1       -0.2751
     22 C          -3.4760   -0.6700   -0.0450 C.ar    1  LIG1        0.0855
     23 C          -3.8550    0.7450    0.0360 C.ar    1  LIG1        0.0603
     24 S          -3.1490    2.0640    1.0130 S.2     1  LIG1       -0.0706
     25 C          -4.2050    3.3330    0.4760 C.ar    1  LIG1        0.0761
     26 N          -4.9920    2.7060   -0.3720 N.ar    1  LIG1       -0.2488
     27 C          -4.8520    1.4280   -0.6250 C.ar    1  LIG1        0.0549
     28 C          -5.7620    0.7250   -1.6000 C.3     1  LIG1       -0.0212
     29 C          -4.2170    4.7850    0.8790 C.3     1  LIG1       -0.0159
     30 O           3.7410   -2.6830    1.1120 O.2     1  LIG1       -0.2512
     31 O          -0.2550    0.2410    0.0830 O.2     1  LIG1       -0.2864
     32 H           4.4080    3.6910    1.4290 H       1  LIG1        0.0439
     33 H           3.2080    3.0910    0.2600 H       1  LIG1        0.0439
     34 H           3.7740    1.3830    1.9920 H       1  LIG1        0.0456
     35 H           5.4710    1.4310    1.4580 H       1  LIG1        0.0456
     36 H           4.8880    0.1460   -1.8260 H       1  LIG1        0.0456
     37 H           6.0880    0.7460   -0.6570 H       1  LIG1        0.0456
     38 H           3.8260    2.4050   -1.8550 H       1  LIG1        0.0439
     39 H           5.5220    2.4530   -2.3890 H       1  LIG1        0.0439
     40 H           3.7810    4.6090   -1.2650 H       1  LIG1        0.0391
     41 H           5.0510    5.3280   -0.2460 H       1  LIG1        0.0391
     42 H           5.4390    4.7720   -1.8920 H       1  LIG1        0.0391
     43 H           5.3270   -0.8260    0.9020 H       1  LIG1        0.1708
     44 H           2.0630   -0.5120   -0.3030 H       1  LIG1        0.1564
     45 H           2.8560   -3.9680   -0.1130 H       1  LIG1        0.0636
     46 H           1.2300   -5.7990   -0.2640 H       1  LIG1        0.0618
     47 H          -1.1830   -5.3260   -0.2880 H       1  LIG1        0.0624
     48 H          -5.2950   -1.6780   -0.1480 H       1  LIG1        0.1890
     49 H          -5.3330    0.7790   -2.6000 H       1  LIG1        0.0293
     50 H          -5.8710   -0.3190   -1.3060 H       1  LIG1        0.0293
     51 H          -6.7390    1.2080   -1.5970 H       1  LIG1        0.0293
     52 H          -3.5690    5.3530    0.2110 H       1  LIG1        0.0298
     53 H          -5.2340    5.1720    0.8140 H       1  LIG1        0.0298
     54 H          -3.8570    4.8810    1.9030 H       1  LIG1        0.0298
@<TRIPOS>BOND
     1     1     2    1
     2     1     6    1
     3     1    32    1
     4     1    33    1
     5     2     3    1
     6     2    34    1
     7     2    35    1
     8     3     4    1
     9     3     8    1
    10     4     5    1
    11     4    36    1
    12     4    37    1
    13     5     6    1
    14     5    38    1
    15     5    39    1
    16     6     7    1
    17     7    40    1
    18     7    41    1
    19     7    42    1
    20     8     9   am
    21     8    43    1
    22     9    10   am
    23     9    30    2
    24    10    11    1
    25    10    44    1
    26    11    12   ar
    27    11    16   ar
    28    12    13   ar
    29    12    45    1
    30    13    14   ar
    31    13    46    1
    32    14    15   ar
    33    14    47    1
    34    15    16   ar
    35    15    17    1
    36    16    19    1
    37    17    18   ar
    38    17    20   ar
    39    18    19    1
    40    18    22   ar
    41    19    31    2
    42    20    21   ar
    43    21    22   ar
    44    21    48    1
    45    22    23    1
    46    23    24   ar
    47    23    27   ar
    48    24    25   ar
    49    25    26   ar
    50    25    29    1
    51    26    27   ar
    52    27    28    1
    53    28    49    1
    54    28    50    1
    55    28    51    1
    56    29    52    1
    57    29    53    1
    58    29    54    1
