@<TRIPOS>MOLECULE
DRF
 56 59 0 0 0
SMALL
GASTEIGER

@<TRIPOS>ATOM
      1 C           2.0570   -0.2870   36.6140 C.3     1  UNL1        0.1056
      2 C           2.0970   -1.0330   35.2820 C.3     1  UNL1        0.0516
      3 N           3.0980   -0.4090   34.4010 N.pl3   1  UNL1       -0.2911
      4 C           4.3600   -0.9320   34.3080 C.ar    1  UNL1        0.0770
      5 C           4.6580   -2.2860   34.6360 C.ar    1  UNL1       -0.0367
      6 C           5.4290   -0.0710   33.8630 C.ar    1  UNL1        0.1497
      7 C           5.9760   -2.7740   34.5270 C.ar    1  UNL1       -0.0598
      8 C           7.0150   -1.9210   34.0920 C.ar    1  UNL1       -0.0582
      9 C           6.7420   -0.5780   33.7620 C.ar    1  UNL1       -0.0175
     10 O           5.1480    1.2270   33.5520 O.3     1  UNL1       -0.4523
     11 C           3.8720    1.5670   33.2210 C.ar    1  UNL1        0.1497
     12 C           2.7910    0.7140   33.6590 C.ar    1  UNL1        0.0770
     13 C           3.6020    2.7300   32.4680 C.ar    1  UNL1       -0.0175
     14 C           1.4540    1.0730   33.3140 C.ar    1  UNL1       -0.0367
     15 C           1.1980    2.2380   32.5610 C.ar    1  UNL1       -0.0598
     16 C           2.2680    3.0640   32.1400 C.ar    1  UNL1       -0.0582
     17 O           3.3070    0.3290   36.8860 O.3     1  UNL1       -0.4904
     18 C           3.9500   -0.4200   37.8650 C.ar    1  UNL1        0.1206
     19 C           5.3080   -0.8030   37.6960 C.ar    1  UNL1       -0.0197
     20 C           5.9470   -1.5670   38.6810 C.ar    1  UNL1       -0.0550
     21 C           5.2510   -1.9560   39.8350 C.ar    1  UNL1       -0.0442
     22 C           3.8990   -1.5760   40.0150 C.ar    1  UNL1       -0.0550
     23 C           3.2480   -0.8090   39.0290 C.ar    1  UNL1       -0.0197
     24 C           5.8070   -2.7370   40.8600 C.3     1  UNL1        0.0092
     25 C           5.5830   -3.9000   41.6440 C.3     1  UNL1        0.1587
     26 C           4.4810   -3.9970   42.3430 C.2     1  UNL1        0.3342
     27 O           3.3360   -4.4190   42.0640 O.2     1  UNL1       -0.2481
     28 O           4.2520   -3.6470   43.5710 O.3     1  UNL1       -0.4788
     29 O           5.7260   -5.1200   40.6880 O.3     1  UNL1       -0.3653
     30 C           7.0550   -5.3230   40.2870 C.3     1  UNL1        0.0459
     31 C           7.7970   -6.1050   41.3320 C.3     1  UNL1       -0.0415
     32 H           1.2760    0.4864   36.5706 H       1  UNL1        0.0712
     33 H           1.8383   -1.0084   37.4151 H       1  UNL1        0.0712
     34 H           2.3681   -2.0844   35.4584 H       1  UNL1        0.0501
     35 H           1.1071   -0.9852   34.8046 H       1  UNL1        0.0501
     36 H           3.8541   -2.9552   34.9766 H       1  UNL1        0.0637
     37 H           6.1961   -3.8213   34.7812 H       1  UNL1        0.0618
     38 H           8.0419   -2.3068   34.0105 H       1  UNL1        0.0619
     39 H           7.5572    0.0786   33.4238 H       1  UNL1        0.0655
     40 H           4.4286    3.3757   32.1368 H       1  UNL1        0.0655
     41 H           0.6169    0.4369   33.6375 H       1  UNL1        0.0637
     42 H           0.1635    2.5056   32.3000 H       1  UNL1        0.0618
     43 H           2.0601    3.9714   31.5540 H       1  UNL1        0.0619
     44 H           5.8570   -0.4997   36.7923 H       1  UNL1        0.0654
     45 H           6.9982   -1.8629   38.5490 H       1  UNL1        0.0621
     46 H           3.3578   -1.8792   40.9234 H       1  UNL1        0.0621
     47 H           2.1970   -0.5137   39.1642 H       1  UNL1        0.0654
     48 H           6.7899   -2.9717   40.4255 H       1  UNL1        0.0344
     49 H           5.3506   -2.0979   41.6303 H       1  UNL1        0.0344
     50 H           6.3346   -3.8504   42.4456 H       1  UNL1        0.0716
     51 H           3.3549   -3.7854   43.9661 H       1  UNL1        0.2951
     52 H           7.0675   -5.8803   39.3387 H       1  UNL1        0.0557
     53 H           7.5436   -4.3464   40.1545 H       1  UNL1        0.0557
     54 H           7.4814   -5.7723   42.3319 H       1  UNL1        0.0252
     55 H           7.5751   -7.1760   41.2149 H       1  UNL1        0.0252
     56 H           8.8782   -5.9396   41.2149 H       1  UNL1        0.0252
@<TRIPOS>BOND
     1     2     1    1
     2     3     2    1
     3     4     3    1
     4     5     4   ar
     5     6     4   ar
     6     7     5   ar
     7     8     7   ar
     8     9     6   ar
     9     9     8   ar
    10    10     6    1
    11    11    10    1
    12    12    11   ar
    13    12     3    1
    14    13    11   ar
    15    14    12   ar
    16    15    14   ar
    17    16    15   ar
    18    16    13   ar
    19    17     1    1
    20    18    17    1
    21    19    18   ar
    22    20    19   ar
    23    21    20   ar
    24    22    21   ar
    25    23    18   ar
    26    23    22   ar
    27    24    21    1
    28    25    24    1
    29    26    25    1
    30    27    26    2
    31    28    26    1
    32    29    25    1
    33    30    29    1
    34    31    30    1
    35     1    32    1
    36     1    33    1
    37     2    34    1
    38     2    35    1
    39     5    36    1
    40     7    37    1
    41     8    38    1
    42     9    39    1
    43    13    40    1
    44    14    41    1
    45    15    42    1
    46    16    43    1
    47    19    44    1
    48    20    45    1
    49    22    46    1
    50    23    47    1
    51    24    48    1
    52    24    49    1
    53    25    50    1
    54    28    51    1
    55    30    52    1
    56    30    53    1
    57    31    54    1
    58    31    55    1
    59    31    56    1
