MS8
 OpenBabel05132216583D

 35 36  0  0  0  0  0  0  0  0999 V2000
   -5.3610   25.9490    8.4500 C   0  0  0  0  0  0  0  0  0  0  0  0
   -6.4170   24.4970   10.1870 C   0  0  0  0  0  0  0  0  0  0  0  0
   -2.6640   24.5430   10.5480 C   0  0  0  0  0  0  0  0  0  0  0  0
   -6.3590   24.8190    8.7030 C   0  0  0  0  0  0  0  0  0  0  0  0
   -3.9480   25.3150   10.3010 C   0  0  2  0  0  0  0  0  0  0  0  0
   -5.0140   24.3330   10.7750 C   0  0  2  0  0  0  0  0  0  0  0  0
   -3.0810   23.0880   10.8110 C   0  0  1  0  0  0  0  0  0  0  0  0
   -4.0440   25.5900    8.8900 O   0  0  0  0  0  0  0  0  0  0  0  0
   -4.4530   23.0630   10.4470 O   0  0  0  0  0  0  0  0  0  0  0  0
   -2.2720   22.1500    9.9370 C   0  0  0  0  0  0  0  0  0  0  0  0
   -1.0830   21.9180   10.2460 O   0  0  0  0  0  0  0  0  0  0  0  0
   -2.8410   21.6490    8.9450 O   0  0  0  0  0  0  0  0  0  0  0  0
   -2.9160   22.7150   12.2860 C   0  0  0  0  0  0  0  0  0  0  0  0
   -3.0990   21.2120   12.5300 C   0  0  2  0  0  0  0  0  0  0  0  0
   -4.4410   20.8610   13.0050 N   0  0  0  0  0  0  0  0  0  0  0  0
   -2.0780   20.7700   13.5280 C   0  0  0  0  0  0  0  0  0  0  0  0
   -0.9160   21.2120   13.4000 O   0  0  0  0  0  0  0  0  0  0  0  0
   -2.4230   19.9750   14.4340 O   0  0  0  0  0  0  0  0  0  0  0  0
   -5.6802   26.8212    8.9812 H   0  0  0  0  0  0  0  0  0  0  0  0
   -5.3253   26.1384    7.3975 H   0  0  0  0  0  0  0  0  0  0  0  0
   -6.9616   23.5864   10.3251 H   0  0  0  0  0  0  0  0  0  0  0  0
   -6.9016   25.3076   10.6900 H   0  0  0  0  0  0  0  0  0  0  0  0
   -2.1500   24.9407   11.3980 H   0  0  0  0  0  0  0  0  0  0  0  0
   -2.0006   24.6128    9.7114 H   0  0  0  0  0  0  0  0  0  0  0  0
   -7.3291   25.1219    8.3683 H   0  0  0  0  0  0  0  0  0  0  0  0
   -6.0451   23.9476    8.1673 H   0  0  0  0  0  0  0  0  0  0  0  0
   -4.0265   26.2594   10.7978 H   0  0  0  0  0  0  0  0  0  0  0  0
   -5.2111   24.4893   11.8150 H   0  0  0  0  0  0  0  0  0  0  0  0
   -3.7355   21.8595    8.7621 H   0  0  0  0  0  0  0  0  0  0  0  0
   -3.6453   23.2480   12.8594 H   0  0  0  0  0  0  0  0  0  0  0  0
   -1.9209   22.9757   12.5804 H   0  0  0  0  0  0  0  0  0  0  0  0
   -2.9720   20.7113   11.5929 H   0  0  0  0  0  0  0  0  0  0  0  0
   -4.6141   21.3156   13.9015 H   0  0  0  0  0  0  0  0  0  0  0  0
   -4.5078   19.8495   13.1182 H   0  0  0  0  0  0  0  0  0  0  0  0
   -3.3096   19.6757   14.4821 H   0  0  0  0  0  0  0  0  0  0  0  0
  1 19  1  0  0  0  0
  1 20  1  0  0  0  0
  2 21  1  0  0  0  0
  2 22  1  0  0  0  0
  3 23  1  0  0  0  0
  3 24  1  0  0  0  0
  4  2  1  0  0  0  0
  4  1  1  0  0  0  0
  4 25  1  0  0  0  0
  4 26  1  0  0  0  0
  5  3  1  0  0  0  0
  5 27  1  1  0  0  0
  6  2  1  0  0  0  0
  6  5  1  0  0  0  0
  6 28  1  1  0  0  0
  7  3  1  0  0  0  0
  7 10  1  6  0  0  0
  8  5  1  0  0  0  0
  8  1  1  0  0  0  0
  9  7  1  0  0  0  0
  9  6  1  0  0  0  0
 11 10  2  0  0  0  0
 12 10  1  0  0  0  0
 12 29  1  0  0  0  0
 13  7  1  0  0  0  0
 13 30  1  0  0  0  0
 13 31  1  0  0  0  0
 14 13  1  0  0  0  0
 14 32  1  6  0  0  0
 15 14  1  0  0  0  0
 15 33  1  0  0  0  0
 15 34  1  0  0  0  0
 16 14  1  0  0  0  0
 17 16  2  0  0  0  0
 18 16  1  0  0  0  0
 18 35  1  0  0  0  0
M  END
$$$$
