@<TRIPOS>MOLECULE
MS8
 35 36 0 0 0
SMALL
GASTEIGER

@<TRIPOS>ATOM
      1 C          -5.3610   25.9490    8.4500 C.3     1  UNL1        0.0482
      2 C          -6.4170   24.4970   10.1870 C.3     1  UNL1       -0.0220
      3 C          -2.6640   24.5430   10.5480 C.3     1  UNL1        0.0156
      4 C          -6.3590   24.8190    8.7030 C.3     1  UNL1       -0.0270
      5 C          -3.9480   25.3150   10.3010 C.3     1  UNL1        0.0879
      6 C          -5.0140   24.3330   10.7750 C.3     1  UNL1        0.0864
      7 C          -3.0810   23.0880   10.8110 C.3     1  UNL1        0.1700
      8 O          -4.0440   25.5900    8.8900 O.3     1  UNL1       -0.3739
      9 O          -4.4530   23.0630   10.4470 O.3     1  UNL1       -0.3563
     10 C          -2.2720   22.1500    9.9370 C.2     1  UNL1        0.3372
     11 O          -1.0830   21.9180   10.2460 O.2     1  UNL1       -0.2477
     12 O          -2.8410   21.6490    8.9450 O.3     1  UNL1       -0.4786
     13 C          -2.9160   22.7150   12.2860 C.3     1  UNL1        0.0124
     14 CA         -3.0990   21.2120   12.5300 C.3     1  UNL1        0.1064
     15 N          -4.4410   20.8610   13.0050 N.3     1  UNL1       -0.3183
     16 C          -2.0780   20.7700   13.5280 C.2     1  UNL1        0.3218
     17 O          -0.9160   21.2120   13.4000 O.2     1  UNL1       -0.2493
     18 OXT        -2.4230   19.9750   14.4340 O.3     1  UNL1       -0.4795
     19 H          -5.6802   26.8212    8.9812 H       1  UNL1        0.0560
     20 H          -5.3253   26.1384    7.3975 H       1  UNL1        0.0560
     21 H          -6.9616   23.5864   10.3251 H       1  UNL1        0.0292
     22 H          -6.9016   25.3076   10.6900 H       1  UNL1        0.0292
     23 H          -2.1500   24.9407   11.3980 H       1  UNL1        0.0324
     24 H          -2.0006   24.6128    9.7114 H       1  UNL1        0.0324
     25 H          -7.3291   25.1219    8.3683 H       1  UNL1        0.0288
     26 H          -6.0451   23.9476    8.1673 H       1  UNL1        0.0288
     27 H          -4.0265   26.2594   10.7978 H       1  UNL1        0.0623
     28 H          -5.2111   24.4893   11.8150 H       1  UNL1        0.0622
     29 H          -3.7355   21.8595    8.7621 H       1  UNL1        0.2951
     30 H          -3.6453   23.2480   12.8594 H       1  UNL1        0.0319
     31 H          -1.9209   22.9757   12.5804 H       1  UNL1        0.0319
     32 HA         -2.9720   20.7113   11.5929 H       1  UNL1        0.0575
     33 H1         -4.6141   21.3156   13.9015 H       1  UNL1        0.1190
     34 H2         -4.5078   19.8495   13.1182 H       1  UNL1        0.1190
     35 HXT        -3.3096   19.6757   14.4821 H       1  UNL1        0.2951
@<TRIPOS>BOND
     1     4     2    1
     2     4     1    1
     3     5     3    1
     4     6     2    1
     5     6     5    1
     6     7     3    1
     7     8     5    1
     8     8     1    1
     9     9     7    1
    10     9     6    1
    11    10     7    1
    12    11    10    2
    13    12    10    1
    14    13     7    1
    15    14    13    1
    16    15    14    1
    17    16    14    1
    18    17    16    2
    19    18    16    1
    20     1    19    1
    21     1    20    1
    22     2    21    1
    23     2    22    1
    24     3    23    1
    25     3    24    1
    26     4    25    1
    27     4    26    1
    28     5    27    1
    29     6    28    1
    30    12    29    1
    31    13    30    1
    32    13    31    1
    33    14    32    1
    34    15    33    1
    35    15    34    1
    36    18    35    1
