@<TRIPOS>MOLECULE
2FF
 55 59 0 0 0
SMALL
GASTEIGER

@<TRIPOS>ATOM
      1 C          48.6760  -16.4130    1.6210 C.ar    1  UNL1       -0.0501
      2 C          48.9560  -15.1980    2.2630 C.ar    1  UNL1        0.0041
      3 C          49.9290  -14.2530    1.6880 C.ar    1  UNL1        0.1244
      4 C          50.5860  -14.5580    0.4980 C.ar    1  UNL1       -0.0194
      5 C          50.3130  -15.7870   -0.1590 C.ar    1  UNL1       -0.0539
      6 C          49.3430  -16.7170    0.3960 C.ar    1  UNL1       -0.0333
      7 C          48.4870  -14.5580    3.5500 C.3     1  UNL1        0.0361
      8 C          49.4370  -13.4100    3.8230 C.3     1  UNL1        0.0994
      9 C          47.0400  -14.1200    3.1640 C.3     1  UNL1       -0.0242
     10 C          46.2810  -13.6340    4.4120 C.3     1  UNL1        0.0160
     11 C          47.9050  -14.9240    5.8980 C.3     1  UNL1        0.0160
     12 O          50.0300  -13.0880    2.5600 O.3     1  UNL1       -0.4908
     13 C          48.5060  -15.6170    4.6780 C.3     1  UNL1       -0.0242
     14 C          45.5080  -15.4120    6.0260 C.2     1  UNL1        0.2820
     15 N          46.5400  -14.5340    5.5260 N.am    1  UNL1       -0.2950
     16 O          45.8070  -16.3140    6.7280 O.2     1  UNL1       -0.2666
     17 C          44.0490  -15.2550    5.6840 C.ar    1  UNL1        0.1910
     18 C          43.0980  -14.2600    6.0290 C.ar    1  UNL1       -0.0100
     19 C          41.8480  -14.6710    5.4660 C.ar    1  UNL1       -0.0070
     20 C          42.0650  -15.9070    4.8210 C.ar    1  UNL1        0.1789
     21 O          43.4230  -16.2660    4.9540 O.2     1  UNL1       -0.4420
     22 C          41.0990  -16.7620    4.0340 C.1     1  UNL1       -0.0232
     23 C          40.3060  -17.4540    3.5240 C.1     1  UNL1       -0.0581
     24 C          39.2940  -18.2760    2.7480 C.ar    1  UNL1        0.0254
     25 C          38.7150  -19.4000    3.3610 C.ar    1  UNL1       -0.0463
     26 C          37.7880  -20.1910    2.6540 C.ar    1  UNL1       -0.0606
     27 C          37.4680  -19.8360    1.3180 C.ar    1  UNL1       -0.0617
     28 C          38.0680  -18.7160    0.6930 C.ar    1  UNL1       -0.0606
     29 C          38.9950  -17.9280    1.4030 C.ar    1  UNL1       -0.0463
     30 C          49.0680  -18.0450   -0.3340 C.3     1  UNL1        0.0186
     31 N          47.6260  -18.1170   -0.4980 N.3     1  UNL1       -0.3261
     32 H          47.9539  -17.1205    2.0545 H       1  UNL1        0.0625
     33 H          51.3119  -13.8511    0.0699 H       1  UNL1        0.0654
     34 H          50.8382  -16.0367   -1.0927 H       1  UNL1        0.0622
     35 H          48.8875  -12.5439    4.2205 H       1  UNL1        0.0705
     36 H          50.1970  -13.6814    4.5705 H       1  UNL1        0.0705
     37 H          47.0915  -13.3032    2.4290 H       1  UNL1        0.0290
     38 H          46.5076  -14.9804    2.7325 H       1  UNL1        0.0290
     39 H          46.6197  -12.6208    4.6743 H       1  UNL1        0.0465
     40 H          45.2019  -13.6196    4.1990 H       1  UNL1        0.0465
     41 H          47.8829  -15.6140    6.7544 H       1  UNL1        0.0465
     42 H          48.5024  -14.0485    6.1924 H       1  UNL1        0.0465
     43 H          47.9007  -16.4908    4.3952 H       1  UNL1        0.0290
     44 H          49.5240  -15.9832    4.8769 H       1  UNL1        0.0290
     45 H          43.2853  -13.3487    6.6159 H       1  UNL1        0.0657
     46 H          40.8951  -14.1247    5.5252 H       1  UNL1        0.0662
     47 H          38.9859  -19.6627    4.3943 H       1  UNL1        0.0630
     48 H          37.3213  -21.0668    3.1285 H       1  UNL1        0.0618
     49 H          36.7407  -20.4418    0.7577 H       1  UNL1        0.0618
     50 H          37.8105  -18.4616   -0.3457 H       1  UNL1        0.0618
     51 H          39.4772  -17.0617    0.9265 H       1  UNL1        0.0630
     52 H          49.5657  -18.0528   -1.3149 H       1  UNL1        0.0471
     53 H          49.4539  -18.9052    0.2326 H       1  UNL1        0.0471
     54 H          47.1758  -18.1395    0.4281 H       1  UNL1        0.1185
     55 H          47.2981  -17.2913   -1.0192 H       1  UNL1        0.1185
@<TRIPOS>BOND
     1     2     1   ar
     2     3     2   ar
     3     4     3   ar
     4     5     4   ar
     5     6     1   ar
     6     6     5   ar
     7     7     2    1
     8     8     7    1
     9     9     7    1
    10    10     9    1
    11    12     8    1
    12    12     3    1
    13    13     7    1
    14    13    11    1
    15    15    10    1
    16    15    14   am
    17    15    11    1
    18    16    14    2
    19    17    14    1
    20    18    17   ar
    21    19    18   ar
    22    20    19   ar
    23    21    20   ar
    24    21    17   ar
    25    22    20    1
    26    23    22    3
    27    24    23    1
    28    25    24   ar
    29    26    25   ar
    30    27    26   ar
    31    28    27   ar
    32    29    28   ar
    33    29    24   ar
    34    30     6    1
    35    31    30    1
    36     1    32    1
    37     4    33    1
    38     5    34    1
    39     8    35    1
    40     8    36    1
    41     9    37    1
    42     9    38    1
    43    10    39    1
    44    10    40    1
    45    11    41    1
    46    11    42    1
    47    13    43    1
    48    13    44    1
    49    18    45    1
    50    19    46    1
    51    25    47    1
    52    26    48    1
    53    27    49    1
    54    28    50    1
    55    29    51    1
    56    30    52    1
    57    30    53    1
    58    31    54    1
    59    31    55    1
