2FF
 OpenBabel11102213083D

 55 59  0  0  0  0  0  0  0  0999 V2000
   48.6760  -16.4130    1.6210 C   0  0  0  0  0  0  0  0  0  0  0  0
   48.9560  -15.1980    2.2630 C   0  0  0  0  0  0  0  0  0  0  0  0
   49.9290  -14.2530    1.6880 C   0  0  0  0  0  0  0  0  0  0  0  0
   50.5860  -14.5580    0.4980 C   0  0  0  0  0  0  0  0  0  0  0  0
   50.3130  -15.7870   -0.1590 C   0  0  0  0  0  0  0  0  0  0  0  0
   49.3430  -16.7170    0.3960 C   0  0  0  0  0  0  0  0  0  0  0  0
   48.4870  -14.5580    3.5500 C   0  0  0  0  0  0  0  0  0  0  0  0
   49.4370  -13.4100    3.8230 C   0  0  0  0  0  0  0  0  0  0  0  0
   47.0400  -14.1200    3.1640 C   0  0  0  0  0  0  0  0  0  0  0  0
   46.2810  -13.6340    4.4120 C   0  0  0  0  0  0  0  0  0  0  0  0
   47.9050  -14.9240    5.8980 C   0  0  0  0  0  0  0  0  0  0  0  0
   50.0300  -13.0880    2.5600 O   0  0  0  0  0  0  0  0  0  0  0  0
   48.5060  -15.6170    4.6780 C   0  0  0  0  0  0  0  0  0  0  0  0
   45.5080  -15.4120    6.0260 C   0  0  0  0  0  0  0  0  0  0  0  0
   46.5400  -14.5340    5.5260 N   0  0  0  0  0  0  0  0  0  0  0  0
   45.8070  -16.3140    6.7280 O   0  0  0  0  0  0  0  0  0  0  0  0
   44.0490  -15.2550    5.6840 C   0  0  0  0  0  0  0  0  0  0  0  0
   43.0980  -14.2600    6.0290 C   0  0  0  0  0  0  0  0  0  0  0  0
   41.8480  -14.6710    5.4660 C   0  0  0  0  0  0  0  0  0  0  0  0
   42.0650  -15.9070    4.8210 C   0  0  0  0  0  0  0  0  0  0  0  0
   43.4230  -16.2660    4.9540 O   0  0  0  0  0  0  0  0  0  0  0  0
   41.0990  -16.7620    4.0340 C   0  0  0  0  0  0  0  0  0  0  0  0
   40.3060  -17.4540    3.5240 C   0  0  0  0  0  0  0  0  0  0  0  0
   39.2940  -18.2760    2.7480 C   0  0  0  0  0  0  0  0  0  0  0  0
   38.7150  -19.4000    3.3610 C   0  0  0  0  0  0  0  0  0  0  0  0
   37.7880  -20.1910    2.6540 C   0  0  0  0  0  0  0  0  0  0  0  0
   37.4680  -19.8360    1.3180 C   0  0  0  0  0  0  0  0  0  0  0  0
   38.0680  -18.7160    0.6930 C   0  0  0  0  0  0  0  0  0  0  0  0
   38.9950  -17.9280    1.4030 C   0  0  0  0  0  0  0  0  0  0  0  0
   49.0680  -18.0450   -0.3340 C   0  0  0  0  0  0  0  0  0  0  0  0
   47.6260  -18.1170   -0.4980 N   0  0  0  0  0  0  0  0  0  0  0  0
   47.9539  -17.1205    2.0545 H   0  0  0  0  0  0  0  0  0  0  0  0
   51.3119  -13.8511    0.0699 H   0  0  0  0  0  0  0  0  0  0  0  0
   50.8382  -16.0367   -1.0927 H   0  0  0  0  0  0  0  0  0  0  0  0
   48.8875  -12.5439    4.2205 H   0  0  0  0  0  0  0  0  0  0  0  0
   50.1970  -13.6814    4.5705 H   0  0  0  0  0  0  0  0  0  0  0  0
   47.0915  -13.3032    2.4290 H   0  0  0  0  0  0  0  0  0  0  0  0
   46.5076  -14.9804    2.7325 H   0  0  0  0  0  0  0  0  0  0  0  0
   46.6197  -12.6208    4.6743 H   0  0  0  0  0  0  0  0  0  0  0  0
   45.2019  -13.6196    4.1990 H   0  0  0  0  0  0  0  0  0  0  0  0
   47.8829  -15.6140    6.7544 H   0  0  0  0  0  0  0  0  0  0  0  0
   48.5024  -14.0485    6.1924 H   0  0  0  0  0  0  0  0  0  0  0  0
   47.9007  -16.4908    4.3952 H   0  0  0  0  0  0  0  0  0  0  0  0
   49.5240  -15.9832    4.8769 H   0  0  0  0  0  0  0  0  0  0  0  0
   43.2853  -13.3487    6.6159 H   0  0  0  0  0  0  0  0  0  0  0  0
   40.8951  -14.1247    5.5252 H   0  0  0  0  0  0  0  0  0  0  0  0
   38.9859  -19.6627    4.3943 H   0  0  0  0  0  0  0  0  0  0  0  0
   37.3213  -21.0668    3.1285 H   0  0  0  0  0  0  0  0  0  0  0  0
   36.7407  -20.4418    0.7577 H   0  0  0  0  0  0  0  0  0  0  0  0
   37.8105  -18.4616   -0.3457 H   0  0  0  0  0  0  0  0  0  0  0  0
   39.4772  -17.0617    0.9265 H   0  0  0  0  0  0  0  0  0  0  0  0
   49.5657  -18.0528   -1.3149 H   0  0  0  0  0  0  0  0  0  0  0  0
   49.4539  -18.9052    0.2326 H   0  0  0  0  0  0  0  0  0  0  0  0
   47.1758  -18.1395    0.4281 H   0  0  0  0  0  0  0  0  0  0  0  0
   47.2981  -17.2913   -1.0192 H   0  0  0  0  0  0  0  0  0  0  0  0
  1 32  1  0  0  0  0
  2  1  2  0  0  0  0
  3  2  1  0  0  0  0
  4  3  2  0  0  0  0
  4 33  1  0  0  0  0
  5  4  1  0  0  0  0
  5 34  1  0  0  0  0
  6  1  1  0  0  0  0
  6  5  2  0  0  0  0
  7  2  1  0  0  0  0
  8  7  1  0  0  0  0
  8 35  1  0  0  0  0
  8 36  1  0  0  0  0
  9  7  1  0  0  0  0
  9 37  1  0  0  0  0
  9 38  1  0  0  0  0
 10  9  1  0  0  0  0
 10 39  1  0  0  0  0
 10 40  1  0  0  0  0
 11 41  1  0  0  0  0
 11 42  1  0  0  0  0
 12  8  1  0  0  0  0
 12  3  1  0  0  0  0
 13  7  1  0  0  0  0
 13 11  1  0  0  0  0
 13 43  1  0  0  0  0
 13 44  1  0  0  0  0
 15 10  1  0  0  0  0
 15 14  1  0  0  0  0
 15 11  1  0  0  0  0
 16 14  2  0  0  0  0
 17 14  1  0  0  0  0
 18 17  2  0  0  0  0
 18 45  1  0  0  0  0
 19 18  1  0  0  0  0
 19 46  1  0  0  0  0
 20 19  2  0  0  0  0
 21 20  1  0  0  0  0
 21 17  1  0  0  0  0
 22 20  1  0  0  0  0
 23 22  3  0  0  0  0
 24 23  1  0  0  0  0
 25 24  2  0  0  0  0
 25 47  1  0  0  0  0
 26 25  1  0  0  0  0
 26 48  1  0  0  0  0
 27 26  2  0  0  0  0
 27 49  1  0  0  0  0
 28 27  1  0  0  0  0
 28 50  1  0  0  0  0
 29 28  2  0  0  0  0
 29 24  1  0  0  0  0
 29 51  1  0  0  0  0
 30  6  1  0  0  0  0
 30 52  1  0  0  0  0
 30 53  1  0  0  0  0
 31 30  1  0  0  0  0
 31 54  1  0  0  0  0
 31 55  1  0  0  0  0
M  END
$$$$
