@<TRIPOS>MOLECULE
IIB
 64 68 0 0 0
SMALL
GASTEIGER

@<TRIPOS>ATOM
      1 C           7.1930    9.1870   17.0870 C.ar    1  UNL1       -0.0569
      2 N          11.4040    4.5750   16.8180 N.1     1  UNL1       -0.1908
      3 C           6.4100    7.9820   17.0660 C.ar    1  UNL1       -0.0263
      4 C           7.0510    6.6840   16.9970 C.ar    1  UNL1        0.0542
      5 C           8.5060    6.6540   16.9490 C.ar    1  UNL1        0.0183
      6 C           9.2650    7.8760   16.9710 C.ar    1  UNL1       -0.0513
      7 C           8.6170    9.1370   17.0390 C.ar    1  UNL1       -0.0608
      8 C          10.2980    4.8740   16.8240 C.1     1  UNL1        0.1021
      9 N           6.6340    5.3040   16.9590 N.ar    1  UNL1       -0.3290
     10 C           7.7540    4.4370   16.8810 C.ar    1  UNL1        0.1233
     11 C           8.9000    5.2760   16.8820 C.ar    1  UNL1        0.0894
     12 C           4.9500    8.2300   17.1160 C.3     1  UNL1       -0.0377
     13 C           7.7400    3.0060   16.8090 C.2     1  UNL1        0.2621
     14 N           7.4850    2.4190   15.6210 N.am    1  UNL1       -0.3072
     15 O           7.9070    2.3320   17.8210 O.2     1  UNL1       -0.2685
     16 C           7.2000    0.9870   15.4860 C.3     1  UNL1        0.0258
     17 C           5.6940    0.7150   15.4150 C.3     1  UNL1       -0.0216
     18 C           5.4530   -0.8140   15.2720 C.3     1  UNL1        0.0008
     19 N           6.2410   -1.4020   14.1230 N.3     1  UNL1       -0.2998
     20 C           7.6990   -1.1490   14.2070 C.3     1  UNL1        0.0008
     21 C           7.9440    0.3740   14.2740 C.3     1  UNL1       -0.0216
     22 C           6.0470   -2.8740   13.8340 C.3     1  UNL1        0.0048
     23 C           5.1190   -3.4330   14.9110 C.3     1  UNL1       -0.0497
     24 C           7.3670   -3.6890   13.7950 C.3     1  UNL1       -0.0497
     25 C           5.2010    4.8420   16.9950 C.3     1  UNL1        0.0694
     26 C           4.6000    4.5980   18.3570 C.ar    1  UNL1        0.1038
     27 N           4.1640    5.6320   19.1300 N.ar    1  UNL1       -0.0808
     28 O           3.7210    5.1020   20.2280 O.2     1  UNL1       -0.3538
     29 C           3.8560    3.7640   20.1840 C.ar    1  UNL1        0.1741
     30 C           4.4230    3.3600   18.9920 C.ar    1  UNL1        0.0106
     31 C           3.4800    2.8340   21.2750 C.ar    1  UNL1        0.0585
     32 S           3.7870    3.2270   22.8740 S.2     1  UNL1       -0.0736
     33 C           3.1490    1.7450   23.3600 C.ar    1  UNL1        0.0787
     34 CL          3.1180    1.3160   25.0140 Cl      1  UNL1       -0.0758
     35 C           2.6800    0.9250   22.3100 C.ar    1  UNL1       -0.0355
     36 C           2.8760    1.5700   21.0600 C.ar    1  UNL1       -0.0424
     37 H           6.6863   10.1619   17.1409 H       1  UNL1        0.0621
     38 H          10.3635    7.8324   16.9346 H       1  UNL1        0.0624
     39 H           9.2069   10.0653   17.0545 H       1  UNL1        0.0618
     40 H           4.6232    8.2855   18.1649 H       1  UNL1        0.0278
     41 H           4.7219    9.1798   16.6101 H       1  UNL1        0.0278
     42 H           4.4211    7.4088   16.6101 H       1  UNL1        0.0278
     43 H           7.4908    3.0022   14.7721 H       1  UNL1        0.1493
     44 H           7.5789    0.4913   16.3919 H       1  UNL1        0.0499
     45 H           5.2115    1.0784   16.3343 H       1  UNL1        0.0295
     46 H           5.2662    1.2377   14.5468 H       1  UNL1        0.0295
     47 H           5.7584   -1.3113   16.2045 H       1  UNL1        0.0427
     48 H           4.3836   -0.9740   15.0703 H       1  UNL1        0.0427
     49 H           8.1045   -1.6275   15.1107 H       1  UNL1        0.0427
     50 H           8.1994   -1.5664   13.3208 H       1  UNL1        0.0427
     51 H           9.0226    0.5635   14.3770 H       1  UNL1        0.0295
     52 H           7.5656    0.8375   13.3510 H       1  UNL1        0.0295
     53 H           5.6171   -2.9690   12.8259 H       1  UNL1        0.0457
     54 H           5.5226   -3.1899   15.9050 H       1  UNL1        0.0245
     55 H           4.1197   -2.9865   14.8018 H       1  UNL1        0.0245
     56 H           5.0465   -4.5252   14.8018 H       1  UNL1        0.0245
     57 H           7.7011   -3.8953   14.8225 H       1  UNL1        0.0245
     58 H           7.1960   -4.6389   13.2674 H       1  UNL1        0.0245
     59 H           8.1397   -3.1105   13.2674 H       1  UNL1        0.0245
     60 H           4.5913    5.6087   16.4945 H       1  UNL1        0.0558
     61 H           5.2024    3.8595   16.5003 H       1  UNL1        0.0558
     62 H           4.6681    2.3477   18.6382 H       1  UNL1        0.0675
     63 H           2.2283   -0.0693   22.4414 H       1  UNL1        0.0638
     64 H           2.6021    1.1540   20.0792 H       1  UNL1        0.0630
@<TRIPOS>BOND
     1     3     1   ar
     2     4     3   ar
     3     5     4   ar
     4     6     5   ar
     5     7     6   ar
     6     7     1   ar
     7     8     2    3
     8     9     4   ar
     9    10     9   ar
    10    11    10   ar
    11    11     8    1
    12    11     5   ar
    13    12     3    1
    14    13    10    1
    15    14    13   am
    16    15    13    2
    17    16    14    1
    18    17    16    1
    19    18    17    1
    20    19    18    1
    21    20    19    1
    22    21    20    1
    23    21    16    1
    24    22    19    1
    25    23    22    1
    26    24    22    1
    27    25     9    1
    28    26    25    1
    29    27    26   ar
    30    28    27   ar
    31    29    28   ar
    32    30    29   ar
    33    30    26   ar
    34    31    29    1
    35    32    31   ar
    36    33    32   ar
    37    34    33    1
    38    35    33   ar
    39    36    31   ar
    40    36    35   ar
    41     1    37    1
    42     6    38    1
    43     7    39    1
    44    12    40    1
    45    12    41    1
    46    12    42    1
    47    14    43    1
    48    16    44    1
    49    17    45    1
    50    17    46    1
    51    18    47    1
    52    18    48    1
    53    20    49    1
    54    20    50    1
    55    21    51    1
    56    21    52    1
    57    22    53    1
    58    23    54    1
    59    23    55    1
    60    23    56    1
    61    24    57    1
    62    24    58    1
    63    24    59    1
    64    25    60    1
    65    25    61    1
    66    30    62    1
    67    35    63    1
    68    36    64    1
