BFU
 OpenBabel06142216313D

 43 45  0  0  0  0  0  0  0  0999 V2000
    8.8060  -34.9230   16.3000 C   0  0  1  0  0  0  0  0  0  0  0  0
    8.6940  -33.6820   17.2020 C   0  0  0  0  0  0  0  0  0  0  0  0
    9.7920  -34.7270   17.4790 C   0  0  1  0  0  0  0  0  0  0  0  0
    9.6460  -35.5950   18.7540 C   0  0  0  0  0  0  0  0  0  0  0  0
    9.0590  -35.0320   19.9330 C   0  0  0  0  0  0  0  0  0  0  0  0
    8.9260  -35.8010   21.1120 C   0  0  0  0  0  0  0  0  0  0  0  0
    8.6350  -33.7760   19.9380 F   0  0  0  0  0  0  0  0  0  0  0  0
    9.3770  -37.1390   21.1340 C   0  0  0  0  0  0  0  0  0  0  0  0
    9.9720  -37.7430   19.9780 C   0  0  0  0  0  0  0  0  0  0  0  0
   10.1080  -36.9600   18.7710 C   0  0  0  0  0  0  0  0  0  0  0  0
   10.6860  -37.4940   17.6070 O   0  0  0  0  0  0  0  0  0  0  0  0
   10.4530  -39.1960   20.0300 C   0  0  0  0  0  0  0  0  0  0  0  0
   11.5830  -39.4070   20.4460 O   0  0  0  0  0  0  0  0  0  0  0  0
    9.5990  -40.3790   19.5950 C   0  0  0  0  0  0  0  0  0  0  0  0
    8.1830  -39.9560   19.1240 C   0  0  0  0  0  0  0  0  0  0  0  0
    7.7100  -35.8970   16.3570 N   0  0  0  0  0  0  0  0  0  0  0  0
    7.6400  -37.0930   15.7010 C   0  0  0  0  0  0  0  0  0  0  0  0
    6.6110  -37.9550   15.8900 N   0  0  0  0  0  0  0  0  0  0  0  0
    8.5450  -37.4320   14.9330 O   0  0  0  0  0  0  0  0  0  0  0  0
    5.4520  -37.9180   16.7110 C   0  0  0  0  0  0  0  0  0  0  0  0
    4.2490  -38.3180   16.1950 N   0  0  0  0  0  0  0  0  0  0  0  0
    3.0920  -38.3050   16.9340 C   0  0  0  0  0  0  0  0  0  0  0  0
    3.1190  -37.8680   18.2660 C   0  0  0  0  0  0  0  0  0  0  0  0
    4.3510  -37.4470   18.8260 C   0  0  0  0  0  0  0  0  0  0  0  0
    1.5910  -37.8430   19.2620 Br  0  0  0  0  0  0  0  0  0  0  0  0
    5.5280  -37.4690   18.0480 C   0  0  0  0  0  0  0  0  0  0  0  0
    8.9476  -35.1312   15.2292 H   0  0  0  0  0  0  0  0  0  0  0  0
    8.9659  -32.6913   16.8087 H   0  0  0  0  0  0  0  0  0  0  0  0
    7.8892  -33.2265   17.7976 H   0  0  0  0  0  0  0  0  0  0  0  0
   10.8883  -34.7205   17.5685 H   0  0  0  0  0  0  0  0  0  0  0  0
    8.4720  -35.3578   22.0106 H   0  0  0  0  0  0  0  0  0  0  0  0
    9.2697  -37.7292   22.0560 H   0  0  0  0  0  0  0  0  0  0  0  0
   10.7670  -36.9356   16.7935 H   0  0  0  0  0  0  0  0  0  0  0  0
   10.1066  -40.8929   18.7654 H   0  0  0  0  0  0  0  0  0  0  0  0
    9.4753  -41.0373   20.4676 H   0  0  0  0  0  0  0  0  0  0  0  0
    7.5465  -39.7659   20.0008 H   0  0  0  0  0  0  0  0  0  0  0  0
    8.2562  -39.0405   18.5186 H   0  0  0  0  0  0  0  0  0  0  0  0
    7.7421  -40.7616   18.5186 H   0  0  0  0  0  0  0  0  0  0  0  0
    6.9080  -35.6528   16.9554 H   0  0  0  0  0  0  0  0  0  0  0  0
    6.6843  -38.8115   15.3227 H   0  0  0  0  0  0  0  0  0  0  0  0
    2.1456  -38.6368   16.4820 H   0  0  0  0  0  0  0  0  0  0  0  0
    4.3898  -37.1022   19.8698 H   0  0  0  0  0  0  0  0  0  0  0  0
    6.4876  -37.1423   18.4751 H   0  0  0  0  0  0  0  0  0  0  0  0
  1 27  1  6  0  0  0
  2  1  1  0  0  0  0
  2 28  1  0  0  0  0
  2 29  1  0  0  0  0
  3  1  1  0  0  0  0
  3  2  1  0  0  0  0
  3 30  1  6  0  0  0
  4  3  1  0  0  0  0
  5  4  2  0  0  0  0
  6  5  1  0  0  0  0
  6 31  1  0  0  0  0
  7  5  1  0  0  0  0
  8  6  2  0  0  0  0
  8 32  1  0  0  0  0
  9  8  1  0  0  0  0
 10  9  2  0  0  0  0
 10  4  1  0  0  0  0
 11 10  1  0  0  0  0
 11 33  1  0  0  0  0
 12  9  1  0  0  0  0
 13 12  2  0  0  0  0
 14 12  1  0  0  0  0
 14 34  1  0  0  0  0
 14 35  1  0  0  0  0
 15 14  1  0  0  0  0
 15 36  1  0  0  0  0
 15 37  1  0  0  0  0
 15 38  1  0  0  0  0
 16  1  1  0  0  0  0
 16 39  1  0  0  0  0
 17 16  1  0  0  0  0
 18 17  1  0  0  0  0
 18 40  1  0  0  0  0
 19 17  2  0  0  0  0
 20 18  1  0  0  0  0
 21 20  2  0  0  0  0
 22 21  1  0  0  0  0
 22 41  1  0  0  0  0
 23 22  2  0  0  0  0
 24 23  1  0  0  0  0
 24 42  1  0  0  0  0
 25 23  1  0  0  0  0
 26 24  2  0  0  0  0
 26 20  1  0  0  0  0
 26 43  1  0  0  0  0
M  END
$$$$
