@<TRIPOS>MOLECULE
BFU
 43 45 0 0 0
SMALL
GASTEIGER

@<TRIPOS>ATOM
      1 C           8.8060  -34.9230   16.3000 C.3     1  UNL1        0.0322
      2 C           8.6940  -33.6820   17.2020 C.3     1  UNL1       -0.0252
      3 C           9.7920  -34.7270   17.4790 C.3     1  UNL1        0.0105
      4 C           9.6460  -35.5950   18.7540 C.ar    1  UNL1        0.0347
      5 C           9.0590  -35.0320   19.9330 C.ar    1  UNL1        0.1304
      6 C           8.9260  -35.8010   21.1120 C.ar    1  UNL1       -0.0253
      7 F           8.6350  -33.7760   19.9380 F       1  UNL1       -0.2051
      8 C           9.3770  -37.1390   21.1340 C.ar    1  UNL1       -0.0450
      9 C           9.9720  -37.7430   19.9780 C.ar    1  UNL1        0.0592
     10 C          10.1080  -36.9600   18.7710 C.ar    1  UNL1        0.1335
     11 O          10.6860  -37.4940   17.6070 O.3     1  UNL1       -0.5057
     12 C          10.4530  -39.1960   20.0300 C.2     1  UNL1        0.1664
     13 O          11.5830  -39.4070   20.4460 O.2     1  UNL1       -0.2919
     14 C           9.5990  -40.3790   19.5950 C.3     1  UNL1        0.0077
     15 C           8.1830  -39.9560   19.1240 C.3     1  UNL1       -0.0582
     16 N           7.7100  -35.8970   16.3570 N.am    1  UNL1       -0.2957
     17 C           7.6400  -37.0930   15.7010 C.2     1  UNL1        0.3052
     18 N           6.6110  -37.9550   15.8900 N.am    1  UNL1       -0.2542
     19 O           8.5450  -37.4320   14.9330 O.2     1  UNL1       -0.2525
     20 C           5.4520  -37.9180   16.7110 C.ar    1  UNL1        0.1261
     21 N           4.2490  -38.3180   16.1950 N.ar    1  UNL1       -0.2390
     22 C           3.0920  -38.3050   16.9340 C.ar    1  UNL1        0.0436
     23 C           3.1190  -37.8680   18.2660 C.ar    1  UNL1        0.0361
     24 C           4.3510  -37.4470   18.8260 C.ar    1  UNL1       -0.0430
     25 BR          1.5910  -37.8430   19.2620 Br      1  UNL1       -0.0487
     26 C           5.5280  -37.4690   18.0480 C.ar    1  UNL1       -0.0204
     27 H           8.9476  -35.1312   15.2292 H       1  UNL1        0.0505
     28 H           8.9659  -32.6913   16.8087 H       1  UNL1        0.0290
     29 H           7.8892  -33.2265   17.7976 H       1  UNL1        0.0290
     30 H          10.8883  -34.7205   17.5685 H       1  UNL1        0.0369
     31 H           8.4720  -35.3578   22.0106 H       1  UNL1        0.0646
     32 H           9.2697  -37.7292   22.0560 H       1  UNL1        0.0627
     33 H          10.7670  -36.9356   16.7935 H       1  UNL1        0.2922
     34 H          10.1066  -40.8929   18.7654 H       1  UNL1        0.0342
     35 H           9.4753  -41.0373   20.4676 H       1  UNL1        0.0342
     36 H           7.5465  -39.7659   20.0008 H       1  UNL1        0.0234
     37 H           8.2562  -39.0405   18.5186 H       1  UNL1        0.0234
     38 H           7.7421  -40.7616   18.5186 H       1  UNL1        0.0234
     39 H           6.9080  -35.6528   16.9554 H       1  UNL1        0.1505
     40 H           6.6843  -38.8115   15.3227 H       1  UNL1        0.1578
     41 H           2.1456  -38.6368   16.4820 H       1  UNL1        0.0841
     42 H           4.3898  -37.1022   19.8698 H       1  UNL1        0.0630
     43 H           6.4876  -37.1423   18.4751 H       1  UNL1        0.0652
@<TRIPOS>BOND
     1     2     1    1
     2     3     1    1
     3     3     2    1
     4     4     3    1
     5     5     4   ar
     6     6     5   ar
     7     7     5    1
     8     8     6   ar
     9     9     8   ar
    10    10     9   ar
    11    10     4   ar
    12    11    10    1
    13    12     9    1
    14    13    12    2
    15    14    12    1
    16    15    14    1
    17    16     1    1
    18    17    16   am
    19    18    17   am
    20    19    17    2
    21    20    18    1
    22    21    20   ar
    23    22    21   ar
    24    23    22   ar
    25    24    23   ar
    26    25    23    1
    27    26    24   ar
    28    26    20   ar
    29     1    27    1
    30     2    28    1
    31     2    29    1
    32     3    30    1
    33     6    31    1
    34     8    32    1
    35    11    33    1
    36    14    34    1
    37    14    35    1
    38    15    36    1
    39    15    37    1
    40    15    38    1
    41    16    39    1
    42    18    40    1
    43    22    41    1
    44    24    42    1
    45    26    43    1
