@<TRIPOS>MOLECULE
803
 65 67 0 0 0
SMALL
GASTEIGER

@<TRIPOS>ATOM
      1 C         -20.3090   18.7450   -8.9080 C.3     1  UNL1        0.1106
      2 C         -21.5960   17.8990   -9.0520 C.3     1  UNL1       -0.0090
      3 C         -22.7910   18.5240   -8.3060 C.3     1  UNL1       -0.0218
      4 C         -22.7760   20.0360   -8.3240 C.2     1  UNL1       -0.0775
      5 C         -21.8730   22.1130   -8.8180 C.2     1  UNL1       -0.0621
      6 C         -20.9310   22.9350   -9.3020 C.2     1  UNL1       -0.0806
      7 C         -19.6760   22.4070   -9.9280 C.3     1  UNL1       -0.0219
      8 C         -19.3870   21.0370   -9.2910 C.3     1  UNL1       -0.0247
      9 C         -20.6010   20.1330   -9.4950 C.3     1  UNL1        0.0243
     10 C         -19.8510   22.2930  -11.4510 C.3     1  UNL1       -0.0587
     11 C         -22.7620   18.0520   -6.8380 C.3     1  UNL1       -0.0588
     12 C         -21.7940   20.7750   -8.8540 C.2     1  UNL1       -0.0444
     13 C         -18.1870   20.3070   -9.9090 C.3     1  UNL1       -0.0457
     14 C         -16.9160   20.5160   -9.0730 C.3     1  UNL1       -0.0153
     15 C         -15.9590   21.3140   -9.9700 C.3     1  UNL1        0.1054
     16 O         -16.0140   22.6880   -9.5420 O.3     1  UNL1       -0.4612
     17 C         -15.0040   23.1400   -8.7870 C.2     1  UNL1        0.3098
     18 O         -15.0090   24.2960   -8.3910 O.2     1  UNL1       -0.2507
     19 C         -13.8680   22.2280   -8.4310 C.3     1  UNL1        0.0710
     20 C         -13.4270   21.4910   -9.7020 C.3     1  UNL1        0.0686
     21 O         -13.1530   22.3760  -10.7940 O.3     1  UNL1       -0.3911
     22 C         -14.6080   20.5700  -10.0260 C.3     1  UNL1        0.0109
     23 O         -19.8840   18.9360   -7.5550 O.3     1  UNL1       -0.4605
     24 C         -18.9990   18.0190   -7.1640 C.2     1  UNL1        0.3102
     25 O         -18.3240   17.3660   -7.9430 O.2     1  UNL1       -0.2505
     26 C         -18.8970   17.8610   -5.6750 C.3     1  UNL1        0.0534
     27 C         -19.5740   19.0440   -4.9620 C.3     1  UNL1       -0.0523
     28 C         -19.5670   16.5380   -5.2680 C.3     1  UNL1       -0.0432
     29 C         -20.3900   16.7680   -3.9870 C.3     1  UNL1       -0.0645
     30 H         -19.5063   18.2018   -9.4282 H       1  UNL1        0.0740
     31 H         -21.8485   17.8173  -10.1195 H       1  UNL1        0.0307
     32 H         -21.4015   16.9109   -8.6095 H       1  UNL1        0.0307
     33 H         -23.7045   18.1965   -8.8239 H       1  UNL1        0.0342
     34 H         -23.6287   20.5635   -7.8715 H       1  UNL1        0.0578
     35 H         -22.7668   22.5646   -8.3628 H       1  UNL1        0.0617
     36 H         -21.0829   24.0226   -9.2381 H       1  UNL1        0.0575
     37 H         -18.8291   23.0864   -9.7517 H       1  UNL1        0.0343
     38 H         -19.1633   21.2342   -8.2322 H       1  UNL1        0.0313
     39 H         -20.8156   20.0013  -10.5658 H       1  UNL1        0.0388
     40 H         -20.7537   21.7050  -11.6734 H       1  UNL1        0.0235
     41 H         -19.9525   23.2988  -11.8847 H       1  UNL1        0.0235
     42 H         -18.9720   21.7937  -11.8847 H       1  UNL1        0.0235
     43 H         -22.8156   18.9251   -6.1710 H       1  UNL1        0.0235
     44 H         -23.6213   17.3921   -6.6480 H       1  UNL1        0.0235
     45 H         -21.8284   17.5022   -6.6480 H       1  UNL1        0.0235
     46 H         -18.4095   19.2309   -9.9599 H       1  UNL1        0.0269
     47 H         -18.0121   20.7162  -10.9150 H       1  UNL1        0.0269
     48 H         -17.1467   21.0818   -8.1583 H       1  UNL1        0.0301
     49 H         -16.4749   19.5593   -8.7565 H       1  UNL1        0.0301
     50 H         -16.2285   21.3742  -11.0348 H       1  UNL1        0.0734
     51 H         -13.0289   22.8169   -8.0322 H       1  UNL1        0.0403
     52 H         -14.1869   21.5059   -7.6650 H       1  UNL1        0.0403
     53 H         -12.4828   20.9493   -9.5436 H       1  UNL1        0.0600
     54 H         -12.8794   23.2598  -10.4418 H       1  UNL1        0.2098
     55 H         -14.4707   20.1603  -11.0376 H       1  UNL1        0.0326
     56 H         -14.6306   19.7709   -9.2704 H       1  UNL1        0.0326
     57 H         -17.8378   17.8453   -5.3788 H       1  UNL1        0.0410
     58 H         -19.4966   18.9088   -3.8731 H       1  UNL1        0.0238
     59 H         -19.0752   19.9807   -5.2515 H       1  UNL1        0.0238
     60 H         -20.6343   19.0885   -5.2515 H       1  UNL1        0.0238
     61 H         -20.2301   16.1961   -6.0763 H       1  UNL1        0.0270
     62 H         -18.7986   15.7726   -5.0844 H       1  UNL1        0.0270
     63 H         -19.7551   16.5906   -3.1065 H       1  UNL1        0.0230
     64 H         -20.7597   17.8039   -3.9697 H       1  UNL1        0.0230
     65 H         -21.2432   16.0739   -3.9697 H       1  UNL1        0.0230
@<TRIPOS>BOND
     1     2     1    1
     2     3     2    1
     3     4     3    1
     4     6     5    2
     5     7     6    1
     6     8     7    1
     7     9     8    1
     8     9     1    1
     9    10     7    1
    10    11     3    1
    11    12     4    2
    12    12     5    1
    13    12     9    1
    14    13     8    1
    15    14    13    1
    16    15    14    1
    17    16    15    1
    18    17    16    1
    19    18    17    2
    20    19    17    1
    21    20    19    1
    22    21    20    1
    23    22    20    1
    24    22    15    1
    25    23     1    1
    26    24    23    1
    27    25    24    2
    28    26    24    1
    29    27    26    1
    30    28    26    1
    31    29    28    1
    32     1    30    1
    33     2    31    1
    34     2    32    1
    35     3    33    1
    36     4    34    1
    37     5    35    1
    38     6    36    1
    39     7    37    1
    40     8    38    1
    41     9    39    1
    42    10    40    1
    43    10    41    1
    44    10    42    1
    45    11    43    1
    46    11    44    1
    47    11    45    1
    48    13    46    1
    49    13    47    1
    50    14    48    1
    51    14    49    1
    52    15    50    1
    53    19    51    1
    54    19    52    1
    55    20    53    1
    56    21    54    1
    57    22    55    1
    58    22    56    1
    59    26    57    1
    60    27    58    1
    61    27    59    1
    62    27    60    1
    63    28    61    1
    64    28    62    1
    65    29    63    1
    66    29    64    1
    67    29    65    1
