@<TRIPOS>MOLECULE
1XU
 56 60 0 0 0
SMALL
GASTEIGER

@<TRIPOS>ATOM
      1 C          -1.5460   11.9820   -2.9450 C.ar    1  UNL1        0.0005
      2 C          -0.6850   11.2160   -3.7070 C.ar    1  UNL1       -0.0523
      3 C          -0.1500   11.7320   -4.8820 C.ar    1  UNL1       -0.0565
      4 C          -0.4940   13.0270   -5.2890 C.ar    1  UNL1       -0.0304
      5 C          -1.3780   13.8060   -4.5240 C.ar    1  UNL1       -0.0565
      6 C          -1.9020   13.2910   -3.3700 C.ar    1  UNL1       -0.0523
      7 C           0.0920   13.6390   -6.6320 C.3     1  UNL1        0.0348
      8 N           0.6700   14.9380   -6.3630 N.am    1  UNL1       -0.3335
      9 C           2.1140   14.7880   -6.2740 C.2     1  UNL1        0.0811
     10 S           3.1760   15.8520   -6.9840 S.2     1  UNL1       -0.0349
     11 C           2.6930   13.8250   -5.2640 C.ar    1  UNL1        0.0215
     12 C           2.6230   14.1580   -3.8620 C.ar    1  UNL1       -0.0502
     13 C           3.1350   13.2900   -2.9420 C.ar    1  UNL1       -0.0504
     14 C           3.7100   12.0990   -3.4060 C.ar    1  UNL1        0.0187
     15 C           3.7830   11.7720   -4.8170 C.ar    1  UNL1       -0.0321
     16 C           3.2840   12.6110   -5.7230 C.ar    1  UNL1        0.0511
     17 CL          3.3810   12.2020   -7.3370 Cl      1  UNL1       -0.0828
     18 C           4.3250   11.0560   -2.4860 C.ar    1  UNL1        0.1360
     19 C           4.7460   11.1420   -1.1510 C.ar    1  UNL1       -0.0150
     20 C           5.2360    9.8040   -0.8300 C.ar    1  UNL1       -0.0087
     21 C           5.0390    9.0570   -2.0240 C.ar    1  UNL1        0.2119
     22 O           4.5160    9.8140   -2.9380 O.2     1  UNL1       -0.4483
     23 C           5.3530    7.6330   -2.3050 C.2     1  UNL1        0.3725
     24 O           4.6420    6.9680   -3.0600 O.2     1  UNL1       -0.2417
     25 O           6.3760    7.1370   -1.7300 O.3     1  UNL1       -0.4750
     26 C          -2.1580   11.4360   -1.6660 C.ar    1  UNL1        0.0746
     27 C          -3.4190   10.7730   -1.5840 C.ar    1  UNL1       -0.0159
     28 C          -3.5550   10.4970   -0.2580 C.ar    1  UNL1        0.0504
     29 N          -2.4880   10.9630    0.3610 N.ar    1  UNL1       -0.1742
     30 N          -1.6840   11.5130   -0.4660 N.ar    1  UNL1       -0.2321
     31 C          -0.4360   12.1090   -0.0520 C.ar    1  UNL1        0.0675
     32 C           0.6590   11.2740    0.3070 C.ar    1  UNL1       -0.0348
     33 C           1.8500   11.8120    0.6890 C.ar    1  UNL1       -0.0400
     34 C           1.9940   13.2120    0.7280 C.ar    1  UNL1        0.0594
     35 CL          3.4790   13.9300    1.2000 Cl      1  UNL1       -0.0820
     36 C           0.8910   14.0600    0.3630 C.ar    1  UNL1        0.0613
     37 CL          1.1210   15.8330    0.4280 Cl      1  UNL1       -0.0820
     38 C          -0.2840   13.5340   -0.0170 C.ar    1  UNL1       -0.0165
     39 H          -0.4227   10.1977   -3.3840 H       1  UNL1        0.0624
     40 H           0.5396   11.1264   -5.4885 H       1  UNL1        0.0621
     41 H          -1.6466   14.8216   -4.8502 H       1  UNL1        0.0621
     42 H          -2.6008   13.8916   -2.7692 H       1  UNL1        0.0624
     43 H           0.8676   12.9690   -7.0315 H       1  UNL1        0.0511
     44 H          -0.7182   13.7456   -7.3684 H       1  UNL1        0.0511
     45 H           0.1477   15.8190   -6.2532 H       1  UNL1        0.1469
     46 H           2.1614   15.1024   -3.5378 H       1  UNL1        0.0625
     47 H           3.0975   13.5185   -1.8667 H       1  UNL1        0.0625
     48 H           4.2510   10.8301   -5.1393 H       1  UNL1        0.0639
     49 H           4.7142   12.0220   -0.4918 H       1  UNL1        0.0656
     50 H           5.6618    9.4530    0.1216 H       1  UNL1        0.0658
     51 H           6.6230    6.1915   -1.8883 H       1  UNL1        0.2955
     52 H          -4.1176   10.5396   -2.4010 H       1  UNL1        0.0655
     53 H          -4.4030    9.9782    0.2128 H       1  UNL1        0.0848
     54 H           0.5418   10.1807    0.2755 H       1  UNL1        0.0639
     55 H           2.6914   11.1592    0.9644 H       1  UNL1        0.0633
     56 H          -1.1213   14.1894   -0.2986 H       1  UNL1        0.0654
@<TRIPOS>BOND
     1     2     1   ar
     2     3     2   ar
     3     4     3   ar
     4     5     4   ar
     5     6     5   ar
     6     6     1   ar
     7     7     4    1
     8     8     7    1
     9     9     8    1
    10    10     9    2
    11    11     9    1
    12    12    11   ar
    13    13    12   ar
    14    14    13   ar
    15    15    14   ar
    16    16    15   ar
    17    16    11   ar
    18    17    16    1
    19    18    14    1
    20    19    18   ar
    21    20    19   ar
    22    21    20   ar
    23    22    21   ar
    24    22    18   ar
    25    23    21    1
    26    24    23    2
    27    25    23    1
    28    26     1    1
    29    27    26   ar
    30    28    27   ar
    31    29    28   ar
    32    30    29   ar
    33    30    26   ar
    34    31    30    1
    35    32    31   ar
    36    33    32   ar
    37    34    33   ar
    38    35    34    1
    39    36    34   ar
    40    37    36    1
    41    38    36   ar
    42    38    31   ar
    43     2    39    1
    44     3    40    1
    45     5    41    1
    46     6    42    1
    47     7    43    1
    48     7    44    1
    49     8    45    1
    50    12    46    1
    51    13    47    1
    52    15    48    1
    53    19    49    1
    54    20    50    1
    55    25    51    1
    56    27    52    1
    57    28    53    1
    58    32    54    1
    59    33    55    1
    60    38    56    1
