@<TRIPOS>MOLECULE
IMA
 77 81 0 0 0
SMALL
GASTEIGER

@<TRIPOS>ATOM
      1 C           5.9660    2.4800   16.0070 C.ar    1  UNL1        0.1217
      2 C           6.5380    1.6040   16.9590 C.ar    1  UNL1       -0.0179
      3 C           6.6640    2.0240   18.2810 C.ar    1  UNL1       -0.0341
      4 C           6.1950    3.3110   18.6400 C.ar    1  UNL1        0.0501
      5 C           5.5800    4.1840   17.6890 C.ar    1  UNL1        0.0041
      6 C           5.4870    3.7590   16.3650 C.ar    1  UNL1       -0.0107
      7 C           5.1750    5.3640   18.3400 C.ar    1  UNL1       -0.0238
      8 N           6.1810    3.9820   19.8580 N.ar    1  UNL1       -0.3318
      9 C           5.5730    5.1910   19.6870 C.ar    1  UNL1        0.1057
     10 C           5.3560    6.1480   20.6830 C.2     1  UNL1        0.2608
     11 N           6.2990    7.0580   20.8750 N.am    1  UNL1       -0.3060
     12 O           4.3170    6.1540   21.3370 O.2     1  UNL1       -0.2686
     13 C           5.9190    8.0800   21.8260 C.3     1  UNL1        0.0372
     14 C           6.3030    9.5080   21.4750 C.ar    1  UNL1       -0.0299
     15 C           7.4870   10.0240   22.0310 C.ar    1  UNL1       -0.0511
     16 C           7.9560   11.2880   21.6190 C.ar    1  UNL1        0.0039
     17 C           7.2380   12.0510   20.6760 C.ar    1  UNL1        0.1454
     18 C           6.0210   11.5340   20.1770 C.ar    1  UNL1        0.0039
     19 C           5.5500   10.2680   20.5760 C.ar    1  UNL1       -0.0511
     20 N           7.7900   13.3230   20.2550 N.pl3   1  UNL1       -0.3831
     21 C           8.6910   13.0570   19.1320 C.3     1  UNL1        0.0812
     22 C           8.5440   13.9700   21.3440 C.3     1  UNL1        0.0812
     23 C           6.9040   14.4060   19.7920 C.3     1  UNL1        0.0812
     24 C           6.8670    3.5230   21.0760 C.3     1  UNL1        0.0490
     25 C           6.2480    2.3250   21.7230 C.ar    1  UNL1       -0.0269
     26 C           7.1510    1.5030   22.3990 C.ar    1  UNL1       -0.0420
     27 C           6.6590    0.4010   23.1410 C.ar    1  UNL1        0.0650
     28 C           5.2600    0.1270   23.1530 C.ar    1  UNL1       -0.0469
     29 C           4.3590    0.9340   22.4350 C.ar    1  UNL1       -0.0606
     30 C           4.8600    2.0430   21.7200 C.ar    1  UNL1       -0.0568
     31 C           7.6650   -0.4040   23.8640 C.2     1  UNL1        0.3081
     32 N           7.6120   -1.7350   23.6350 N.2     1  UNL1       -0.0994
     33 N           8.5570    0.1730   24.6780 N.pl3   1  UNL1       -0.2466
     34 O           5.9140    2.0300   14.7020 O.3     1  UNL1       -0.4874
     35 C           4.6600    1.6660   14.1380 C.3     1  UNL1        0.1146
     36 C           4.6690    0.1720   14.2300 C.ar    1  UNL1       -0.0104
     37 C           5.6230   -0.5320   13.4850 C.ar    1  UNL1       -0.0554
     38 C           5.6900   -1.9350   13.6080 C.ar    1  UNL1       -0.0614
     39 C           4.7940   -2.6020   14.4700 C.ar    1  UNL1       -0.0617
     40 C           3.8180   -1.8980   15.1960 C.ar    1  UNL1       -0.0614
     41 C           3.7510   -0.5040   15.0710 C.ar    1  UNL1       -0.0554
     42 H           6.8794    0.6024   16.6587 H       1  UNL1        0.0655
     43 H           7.1209    1.3659   19.0348 H       1  UNL1        0.0639
     44 H           5.0428    4.4164   15.6031 H       1  UNL1        0.0661
     45 H           4.6616    6.2309   17.8986 H       1  UNL1        0.0646
     46 H           7.2106    7.0399   20.3958 H       1  UNL1        0.1494
     47 H           4.8250    8.0451   21.9351 H       1  UNL1        0.0512
     48 H           6.4769    7.8454   22.7446 H       1  UNL1        0.0512
     49 H           8.0437    9.4451   22.7826 H       1  UNL1        0.0623
     50 H           8.8930   11.6834   22.0382 H       1  UNL1        0.0681
     51 H           5.4317   12.1304   19.4650 H       1  UNL1        0.0681
     52 H           4.5981    9.8810   20.1835 H       1  UNL1        0.0623
     53 H           9.6795   12.7652   19.5162 H       1  UNL1        0.0931
     54 H           8.2809   12.2416   18.5180 H       1  UNL1        0.0931
     55 H           8.7895   13.9644   18.5180 H       1  UNL1        0.0931
     56 H           8.1501   13.6320   22.3139 H       1  UNL1        0.0931
     57 H           9.6071   13.6988   21.2654 H       1  UNL1        0.0931
     58 H           8.4374   15.0620   21.2654 H       1  UNL1        0.0931
     59 H           6.4773   14.9276   20.6614 H       1  UNL1        0.0931
     60 H           7.4819   15.1181   19.1845 H       1  UNL1        0.0931
     61 H           6.0916   13.9806   19.1845 H       1  UNL1        0.0931
     62 H           7.9051    3.2728   20.8119 H       1  UNL1        0.0541
     63 H           6.7941    4.3442   21.8042 H       1  UNL1        0.0541
     64 H           8.2308    1.7082   22.3562 H       1  UNL1        0.0629
     65 H           4.8798   -0.7276   23.7319 H       1  UNL1        0.0626
     66 H           3.2831    0.7049   22.4308 H       1  UNL1        0.0618
     67 H           4.1703    2.6904   21.1586 H       1  UNL1        0.0621
     68 H           8.2800   -2.3649   24.1018 H       1  UNL1        0.3633
     69 H           9.2509   -0.4046   25.1737 H       1  UNL1        0.2884
     70 H           8.5496    1.1946   24.8087 H       1  UNL1        0.2884
     71 H           3.8276    2.0925   14.7169 H       1  UNL1        0.0748
     72 H           4.5234    2.0358   13.1111 H       1  UNL1        0.0748
     73 H           6.3108    0.0022   12.8130 H       1  UNL1        0.0621
     74 H           6.4360   -2.5059   13.0356 H       1  UNL1        0.0618
     75 H           4.8607   -3.6949   14.5759 H       1  UNL1        0.0618
     76 H           3.1168   -2.4336   15.8529 H       1  UNL1        0.0618
     77 H           2.9881    0.0636   15.6241 H       1  UNL1        0.0621
@<TRIPOS>UNITY_ATOM_ATTR
20 1
charge 1
@<TRIPOS>BOND
     1     2     1   ar
     2     3     2   ar
     3     4     3   ar
     4     5     4   ar
     5     6     1   ar
     6     6     5   ar
     7     7     5   ar
     8     8     4   ar
     9     9     7   ar
    10     9     8   ar
    11    10     9    1
    12    11    10   am
    13    12    10    2
    14    13    11    1
    15    14    13    1
    16    15    14   ar
    17    16    15   ar
    18    17    16   ar
    19    18    17   ar
    20    19    14   ar
    21    19    18   ar
    22    20    17    1
    23    21    20    1
    24    22    20    1
    25    23    20    1
    26    24     8    1
    27    25    24    1
    28    26    25   ar
    29    27    26   ar
    30    28    27   ar
    31    29    28   ar
    32    30    29   ar
    33    30    25   ar
    34    31    27    1
    35    32    31    2
    36    33    31    1
    37    34     1    1
    38    35    34    1
    39    36    35    1
    40    37    36   ar
    41    38    37   ar
    42    39    38   ar
    43    40    39   ar
    44    41    40   ar
    45    41    36   ar
    46     2    42    1
    47     3    43    1
    48     6    44    1
    49     7    45    1
    50    11    46    1
    51    13    47    1
    52    13    48    1
    53    15    49    1
    54    16    50    1
    55    18    51    1
    56    19    52    1
    57    21    53    1
    58    21    54    1
    59    21    55    1
    60    22    56    1
    61    22    57    1
    62    22    58    1
    63    23    59    1
    64    23    60    1
    65    23    61    1
    66    24    62    1
    67    24    63    1
    68    26    64    1
    69    28    65    1
    70    29    66    1
    71    30    67    1
    72    32    68    1
    73    33    69    1
    74    33    70    1
    75    35    71    1
    76    35    72    1
    77    37    73    1
    78    38    74    1
    79    39    75    1
    80    40    76    1
    81    41    77    1
