IMA
 OpenBabel06072215023D

 77 81  0  0  0  0  0  0  0  0999 V2000
    5.9660    2.4800   16.0070 C   0  0  0  0  0  0  0  0  0  0  0  0
    6.5380    1.6040   16.9590 C   0  0  0  0  0  0  0  0  0  0  0  0
    6.6640    2.0240   18.2810 C   0  0  0  0  0  0  0  0  0  0  0  0
    6.1950    3.3110   18.6400 C   0  0  0  0  0  0  0  0  0  0  0  0
    5.5800    4.1840   17.6890 C   0  0  0  0  0  0  0  0  0  0  0  0
    5.4870    3.7590   16.3650 C   0  0  0  0  0  0  0  0  0  0  0  0
    5.1750    5.3640   18.3400 C   0  0  0  0  0  0  0  0  0  0  0  0
    6.1810    3.9820   19.8580 N   0  0  0  0  0  0  0  0  0  0  0  0
    5.5730    5.1910   19.6870 C   0  0  0  0  0  0  0  0  0  0  0  0
    5.3560    6.1480   20.6830 C   0  0  0  0  0  0  0  0  0  0  0  0
    6.2990    7.0580   20.8750 N   0  0  0  0  0  0  0  0  0  0  0  0
    4.3170    6.1540   21.3370 O   0  0  0  0  0  0  0  0  0  0  0  0
    5.9190    8.0800   21.8260 C   0  0  0  0  0  0  0  0  0  0  0  0
    6.3030    9.5080   21.4750 C   0  0  0  0  0  0  0  0  0  0  0  0
    7.4870   10.0240   22.0310 C   0  0  0  0  0  0  0  0  0  0  0  0
    7.9560   11.2880   21.6190 C   0  0  0  0  0  0  0  0  0  0  0  0
    7.2380   12.0510   20.6760 C   0  0  0  0  0  0  0  0  0  0  0  0
    6.0210   11.5340   20.1770 C   0  0  0  0  0  0  0  0  0  0  0  0
    5.5500   10.2680   20.5760 C   0  0  0  0  0  0  0  0  0  0  0  0
    7.7900   13.3230   20.2550 N   0  3  0  0  0  0  0  0  0  0  0  0
    8.6910   13.0570   19.1320 C   0  0  0  0  0  0  0  0  0  0  0  0
    8.5440   13.9700   21.3440 C   0  0  0  0  0  0  0  0  0  0  0  0
    6.9040   14.4060   19.7920 C   0  0  0  0  0  0  0  0  0  0  0  0
    6.8670    3.5230   21.0760 C   0  0  0  0  0  0  0  0  0  0  0  0
    6.2480    2.3250   21.7230 C   0  0  0  0  0  0  0  0  0  0  0  0
    7.1510    1.5030   22.3990 C   0  0  0  0  0  0  0  0  0  0  0  0
    6.6590    0.4010   23.1410 C   0  0  0  0  0  0  0  0  0  0  0  0
    5.2600    0.1270   23.1530 C   0  0  0  0  0  0  0  0  0  0  0  0
    4.3590    0.9340   22.4350 C   0  0  0  0  0  0  0  0  0  0  0  0
    4.8600    2.0430   21.7200 C   0  0  0  0  0  0  0  0  0  0  0  0
    7.6650   -0.4040   23.8640 C   0  0  0  0  0  0  0  0  0  0  0  0
    7.6120   -1.7350   23.6350 N   0  0  0  0  0  0  0  0  0  0  0  0
    8.5570    0.1730   24.6780 N   0  0  0  0  0  0  0  0  0  0  0  0
    5.9140    2.0300   14.7020 O   0  0  0  0  0  0  0  0  0  0  0  0
    4.6600    1.6660   14.1380 C   0  0  0  0  0  0  0  0  0  0  0  0
    4.6690    0.1720   14.2300 C   0  0  0  0  0  0  0  0  0  0  0  0
    5.6230   -0.5320   13.4850 C   0  0  0  0  0  0  0  0  0  0  0  0
    5.6900   -1.9350   13.6080 C   0  0  0  0  0  0  0  0  0  0  0  0
    4.7940   -2.6020   14.4700 C   0  0  0  0  0  0  0  0  0  0  0  0
    3.8180   -1.8980   15.1960 C   0  0  0  0  0  0  0  0  0  0  0  0
    3.7510   -0.5040   15.0710 C   0  0  0  0  0  0  0  0  0  0  0  0
    6.8794    0.6024   16.6587 H   0  0  0  0  0  0  0  0  0  0  0  0
    7.1209    1.3659   19.0348 H   0  0  0  0  0  0  0  0  0  0  0  0
    5.0428    4.4164   15.6031 H   0  0  0  0  0  0  0  0  0  0  0  0
    4.6616    6.2309   17.8986 H   0  0  0  0  0  0  0  0  0  0  0  0
    7.2106    7.0399   20.3958 H   0  0  0  0  0  0  0  0  0  0  0  0
    4.8250    8.0451   21.9351 H   0  0  0  0  0  0  0  0  0  0  0  0
    6.4769    7.8454   22.7446 H   0  0  0  0  0  0  0  0  0  0  0  0
    8.0437    9.4451   22.7826 H   0  0  0  0  0  0  0  0  0  0  0  0
    8.8930   11.6834   22.0382 H   0  0  0  0  0  0  0  0  0  0  0  0
    5.4317   12.1304   19.4650 H   0  0  0  0  0  0  0  0  0  0  0  0
    4.5981    9.8810   20.1835 H   0  0  0  0  0  0  0  0  0  0  0  0
    9.6795   12.7652   19.5162 H   0  0  0  0  0  0  0  0  0  0  0  0
    8.2809   12.2416   18.5180 H   0  0  0  0  0  0  0  0  0  0  0  0
    8.7895   13.9644   18.5180 H   0  0  0  0  0  0  0  0  0  0  0  0
    8.1501   13.6320   22.3139 H   0  0  0  0  0  0  0  0  0  0  0  0
    9.6071   13.6988   21.2654 H   0  0  0  0  0  0  0  0  0  0  0  0
    8.4374   15.0620   21.2654 H   0  0  0  0  0  0  0  0  0  0  0  0
    6.4773   14.9276   20.6614 H   0  0  0  0  0  0  0  0  0  0  0  0
    7.4819   15.1181   19.1845 H   0  0  0  0  0  0  0  0  0  0  0  0
    6.0916   13.9806   19.1845 H   0  0  0  0  0  0  0  0  0  0  0  0
    7.9051    3.2728   20.8119 H   0  0  0  0  0  0  0  0  0  0  0  0
    6.7941    4.3442   21.8042 H   0  0  0  0  0  0  0  0  0  0  0  0
    8.2308    1.7082   22.3562 H   0  0  0  0  0  0  0  0  0  0  0  0
    4.8798   -0.7276   23.7319 H   0  0  0  0  0  0  0  0  0  0  0  0
    3.2831    0.7049   22.4308 H   0  0  0  0  0  0  0  0  0  0  0  0
    4.1703    2.6904   21.1586 H   0  0  0  0  0  0  0  0  0  0  0  0
    8.2800   -2.3649   24.1018 H   0  0  0  0  0  0  0  0  0  0  0  0
    9.2509   -0.4046   25.1737 H   0  0  0  0  0  0  0  0  0  0  0  0
    8.5496    1.1946   24.8087 H   0  0  0  0  0  0  0  0  0  0  0  0
    3.8276    2.0925   14.7169 H   0  0  0  0  0  0  0  0  0  0  0  0
    4.5234    2.0358   13.1111 H   0  0  0  0  0  0  0  0  0  0  0  0
    6.3108    0.0022   12.8130 H   0  0  0  0  0  0  0  0  0  0  0  0
    6.4360   -2.5059   13.0356 H   0  0  0  0  0  0  0  0  0  0  0  0
    4.8607   -3.6949   14.5759 H   0  0  0  0  0  0  0  0  0  0  0  0
    3.1168   -2.4336   15.8529 H   0  0  0  0  0  0  0  0  0  0  0  0
    2.9881    0.0636   15.6241 H   0  0  0  0  0  0  0  0  0  0  0  0
  2  1  2  0  0  0  0
  2 42  1  0  0  0  0
  3  2  1  0  0  0  0
  3 43  1  0  0  0  0
  4  3  2  0  0  0  0
  5  4  1  0  0  0  0
  6  1  1  0  0  0  0
  6  5  2  0  0  0  0
  6 44  1  0  0  0  0
  7  5  1  0  0  0  0
  7 45  1  0  0  0  0
  8  4  1  0  0  0  0
  9  7  2  0  0  0  0
  9  8  1  0  0  0  0
 10  9  1  0  0  0  0
 11 10  1  0  0  0  0
 11 46  1  0  0  0  0
 12 10  2  0  0  0  0
 13 11  1  0  0  0  0
 13 47  1  0  0  0  0
 13 48  1  0  0  0  0
 14 13  1  0  0  0  0
 15 14  2  0  0  0  0
 15 49  1  0  0  0  0
 16 15  1  0  0  0  0
 16 50  1  0  0  0  0
 17 16  2  0  0  0  0
 18 17  1  0  0  0  0
 18 51  1  0  0  0  0
 19 14  1  0  0  0  0
 19 18  2  0  0  0  0
 19 52  1  0  0  0  0
 20 17  1  0  0  0  0
 21 20  1  0  0  0  0
 21 53  1  0  0  0  0
 21 54  1  0  0  0  0
 21 55  1  0  0  0  0
 22 20  1  0  0  0  0
 22 56  1  0  0  0  0
 22 57  1  0  0  0  0
 22 58  1  0  0  0  0
 23 20  1  0  0  0  0
 23 59  1  0  0  0  0
 23 60  1  0  0  0  0
 23 61  1  0  0  0  0
 24  8  1  0  0  0  0
 24 62  1  0  0  0  0
 24 63  1  0  0  0  0
 25 24  1  0  0  0  0
 26 25  2  0  0  0  0
 26 64  1  0  0  0  0
 27 26  1  0  0  0  0
 28 27  2  0  0  0  0
 28 65  1  0  0  0  0
 29 28  1  0  0  0  0
 29 66  1  0  0  0  0
 30 29  2  0  0  0  0
 30 25  1  0  0  0  0
 30 67  1  0  0  0  0
 31 27  1  0  0  0  0
 32 31  2  0  0  0  0
 32 68  1  0  0  0  0
 33 31  1  0  0  0  0
 33 69  1  0  0  0  0
 33 70  1  0  0  0  0
 34  1  1  0  0  0  0
 35 34  1  0  0  0  0
 35 71  1  0  0  0  0
 35 72  1  0  0  0  0
 36 35  1  0  0  0  0
 37 36  2  0  0  0  0
 37 73  1  0  0  0  0
 38 37  1  0  0  0  0
 38 74  1  0  0  0  0
 39 38  2  0  0  0  0
 39 75  1  0  0  0  0
 40 39  1  0  0  0  0
 40 76  1  0  0  0  0
 41 40  2  0  0  0  0
 41 36  1  0  0  0  0
 41 77  1  0  0  0  0
M  CHG  1  20   1
M  END
$$$$
