697
 OpenBabel04132214293D

 28 30  0  0  0  0  0  0  0  0999 V2000
   26.3270   36.6410   39.7830 C   0  0  0  0  0  0  0  0  0  0  0  0
   27.7240   35.1030   41.1760 C   0  0  0  0  0  0  0  0  0  0  0  0
   27.5560   35.9180   40.0030 C   0  0  0  0  0  0  0  0  0  0  0  0
   28.8550   36.8950   37.9680 C   0  0  0  0  0  0  0  0  0  0  0  0
   30.0690   36.4620   37.3720 C   0  0  0  0  0  0  0  0  0  0  0  0
   25.2730   36.5410   40.7480 C   0  0  0  0  0  0  0  0  0  0  0  0
   26.6740   35.0050   42.1350 C   0  0  0  0  0  0  0  0  0  0  0  0
   30.8520   36.9170   36.2610 C   0  0  0  0  0  0  0  0  0  0  0  0
   32.5060   35.0920   36.6600 C   0  0  0  0  0  0  0  0  0  0  0  0
   31.7240   34.6470   37.7620 C   0  0  0  0  0  0  0  0  0  0  0  0
   28.6910   35.9650   39.0200 C   0  0  0  0  0  0  0  0  0  0  0  0
   32.1400   33.5090   38.5240 C   0  0  0  0  0  0  0  0  0  0  0  0
   30.5420   35.3060   38.1130 C   0  0  0  0  0  0  0  0  0  0  0  0
   25.4580   35.7220   41.9140 C   0  0  0  0  0  0  0  0  0  0  0  0
   32.0660   36.2280   35.9120 C   0  0  0  0  0  0  0  0  0  0  0  0
   24.4510   35.6190   42.8410 O   0  0  0  0  0  0  0  0  0  0  0  0
   32.8140   36.6610   34.8490 O   0  0  0  0  0  0  0  0  0  0  0  0
   32.4370   32.5880   39.1550 N   0  0  0  0  0  0  0  0  0  0  0  0
   29.6690   35.0450   39.1080 O   0  0  0  0  0  0  0  0  0  0  0  0
   26.2085   37.2238   38.9396 H   0  0  0  0  0  0  0  0  0  0  0  0
   28.6062   34.5883   41.3236 H   0  0  0  0  0  0  0  0  0  0  0  0
   28.2480   37.6859   37.7015 H   0  0  0  0  0  0  0  0  0  0  0  0
   24.3881   37.0530   40.6069 H   0  0  0  0  0  0  0  0  0  0  0  0
   26.7907   34.4229   42.9792 H   0  0  0  0  0  0  0  0  0  0  0  0
   30.5460   37.7362   35.7131 H   0  0  0  0  0  0  0  0  0  0  0  0
   33.3777   34.6022   36.4045 H   0  0  0  0  0  0  0  0  0  0  0  0
   24.5680   35.0859   43.6026 H   0  0  0  0  0  0  0  0  0  0  0  0
   33.6050   36.2140   34.6197 H   0  0  0  0  0  0  0  0  0  0  0  0
  1 20  1  0  0  0  0
  2 21  1  0  0  0  0
  3  1  2  0  0  0  0
  3  2  1  0  0  0  0
  4 22  1  0  0  0  0
  5  4  1  0  0  0  0
  6  1  1  0  0  0  0
  6 23  1  0  0  0  0
  7  2  2  0  0  0  0
  7 24  1  0  0  0  0
  8  5  2  0  0  0  0
  8 25  1  0  0  0  0
  9 26  1  0  0  0  0
 10  9  1  0  0  0  0
 11  4  2  0  0  0  0
 11  3  1  0  0  0  0
 12 10  1  0  0  0  0
 13 10  2  0  0  0  0
 13  5  1  0  0  0  0
 14  7  1  0  0  0  0
 14  6  2  0  0  0  0
 15  9  2  0  0  0  0
 15  8  1  0  0  0  0
 16 14  1  0  0  0  0
 16 27  1  0  0  0  0
 17 15  1  0  0  0  0
 17 28  1  0  0  0  0
 18 12  3  0  0  0  0
 19 13  1  0  0  0  0
 19 11  1  0  0  0  0
M  END
$$$$
