@<TRIPOS>MOLECULE
697
 28 30 0 0 0
SMALL
GASTEIGER

@<TRIPOS>ATOM
      1 C          26.3270   36.6410   39.7830 C.ar    1  UNL1       -0.0476
      2 C          27.7240   35.1030   41.1760 C.ar    1  UNL1       -0.0476
      3 C          27.5560   35.9180   40.0030 C.ar    1  UNL1        0.0175
      4 C          28.8550   36.8950   37.9680 C.ar    1  UNL1       -0.0079
      5 C          30.0690   36.4620   37.3720 C.ar    1  UNL1        0.0255
      6 C          25.2730   36.5410   40.7480 C.ar    1  UNL1       -0.0195
      7 C          26.6740   35.0050   42.1350 C.ar    1  UNL1       -0.0195
      8 C          30.8520   36.9170   36.2610 C.ar    1  UNL1       -0.0093
      9 C          32.5060   35.0920   36.6600 C.ar    1  UNL1        0.0008
     10 C          31.7240   34.6470   37.7620 C.ar    1  UNL1        0.0979
     11 C          28.6910   35.9650   39.0200 C.ar    1  UNL1        0.1363
     12 C          32.1400   33.5090   38.5240 C.1     1  UNL1        0.1030
     13 C          30.5420   35.3060   38.1130 C.ar    1  UNL1        0.1532
     14 C          25.4580   35.7220   41.9140 C.ar    1  UNL1        0.1169
     15 C          32.0660   36.2280   35.9120 C.ar    1  UNL1        0.1189
     16 O          24.4510   35.6190   42.8410 O.3     1  UNL1       -0.5068
     17 O          32.8140   36.6610   34.8490 O.3     1  UNL1       -0.5067
     18 N          32.4370   32.5880   39.1550 N.1     1  UNL1       -0.1907
     19 O          29.6690   35.0450   39.1080 O.2     1  UNL1       -0.4535
     20 H          26.2085   37.2238   38.9396 H       1  UNL1        0.0626
     21 H          28.6062   34.5883   41.3236 H       1  UNL1        0.0626
     22 H          28.2480   37.6859   37.7015 H       1  UNL1        0.0661
     23 H          24.3881   37.0530   40.6069 H       1  UNL1        0.0654
     24 H          26.7907   34.4229   42.9792 H       1  UNL1        0.0654
     25 H          30.5460   37.7362   35.7131 H       1  UNL1        0.0661
     26 H          33.3777   34.6022   36.4045 H       1  UNL1        0.0668
     27 H          24.5680   35.0859   43.6026 H       1  UNL1        0.2921
     28 H          33.6050   36.2140   34.6197 H       1  UNL1        0.2921
@<TRIPOS>BOND
     1     3     1   ar
     2     3     2   ar
     3     5     4   ar
     4     6     1   ar
     5     7     2   ar
     6     8     5   ar
     7    10     9   ar
     8    11     4   ar
     9    11     3    1
    10    12    10    1
    11    13    10   ar
    12    13     5   ar
    13    14     7   ar
    14    14     6   ar
    15    15     9   ar
    16    15     8   ar
    17    16    14    1
    18    17    15    1
    19    18    12    3
    20    19    13   ar
    21    19    11   ar
    22     1    20    1
    23     2    21    1
    24     4    22    1
    25     6    23    1
    26     7    24    1
    27     8    25    1
    28     9    26    1
    29    16    27    1
    30    17    28    1
