3NA
  Mrv15b2303062314182D          

 26 29  0  0  0  0            999 V2000
   -1.0526   -1.9882    0.0000 C   0  0  0  0  0  0  0  0  0  0  0  0
    0.1736   -0.8841    0.0000 C   0  0  0  0  0  0  0  0  0  0  0  0
   -1.2241   -1.1812    0.0000 C   0  0  0  0  0  0  0  0  0  0  0  0
   -0.2680   -2.2431    0.0000 C   0  0  0  0  0  0  0  0  0  0  0  0
    0.3451   -1.6911    0.0000 C   0  0  0  0  0  0  0  0  0  0  0  0
   -0.6110   -0.6292    0.0000 C   0  0  0  0  0  0  0  0  0  0  0  0
   -0.9466    0.1245    0.0000 C   0  0  0  0  0  0  0  0  0  0  0  0
    0.2909    0.8390    0.0000 C   0  0  0  0  0  0  0  0  0  0  0  0
    0.7759    0.1715    0.0000 S   0  0  0  0  0  0  0  0  0  0  0  0
   -1.9386   -0.7687    0.0000 N   0  0  0  0  0  0  0  0  0  0  0  0
   -1.7671    0.0383    0.0000 C   0  0  0  0  0  0  0  0  0  0  0  0
   -0.5341    0.8390    0.0000 C   0  0  0  0  0  0  0  0  0  0  0  0
    2.2749   -0.8110    0.0000 F   0  0  0  0  0  0  0  0  0  0  0  0
   -2.6923   -1.1043    0.0000 C   0  0  0  0  0  0  0  0  0  0  0  0
    2.2749    2.4890    0.0000 F   0  0  0  0  0  0  0  0  0  0  0  0
    3.7039    1.6640    0.0000 F   0  0  0  0  0  0  0  0  0  0  0  0
    1.5605    1.2515    0.0000 C   0  0  0  0  0  0  0  0  0  0  0  0
    2.9894    0.4265    0.0000 C   0  0  0  0  0  0  0  0  0  0  0  0
    2.2749    1.6640    0.0000 C   0  0  0  0  0  0  0  0  0  0  0  0
    1.5605    0.4265    0.0000 C   0  0  0  0  0  0  0  0  0  0  0  0
    2.2749    0.0140    0.0000 C   0  0  0  0  0  0  0  0  0  0  0  0
    2.9894    1.2515    0.0000 C   0  0  0  0  0  0  0  0  0  0  0  0
   -3.3597   -0.6193    0.0000 C   0  0  0  0  0  0  0  0  0  0  0  0
   -4.1134   -0.9549    0.0000 O   0  0  0  0  0  0  0  0  0  0  0  0
   -3.2735    0.2011    0.0000 O   0  0  0  0  0  0  0  0  0  0  0  0
    0.7759    1.5064    0.0000 N   0  0  0  0  0  0  0  0  0  0  0  0
  1  3  4  0  0  0  0
  1  4  4  0  0  0  0
  2  5  4  0  0  0  0
  2  6  4  0  0  0  0
  3  6  4  0  0  0  0
  3 10  4  0  0  0  0
  4  5  4  0  0  0  0
  6  7  4  0  0  0  0
  7 11  4  0  0  0  0
  7 12  1  0  0  0  0
  8  9  4  0  0  0  0
  8 12  1  0  0  0  0
  8 26  4  0  0  0  0
  9 20  4  0  0  0  0
 10 11  4  0  0  0  0
 10 14  1  0  0  0  0
 13 21  1  0  0  0  0
 14 23  1  0  0  0  0
 15 19  1  0  0  0  0
 16 22  1  0  0  0  0
 17 19  4  0  0  0  0
 17 20  4  0  0  0  0
 17 26  4  0  0  0  0
 18 21  4  0  0  0  0
 18 22  4  0  0  0  0
 19 22  4  0  0  0  0
 20 21  4  0  0  0  0
 23 24  2  0  0  0  0
 23 25  1  0  0  0  0
M  END
