@<TRIPOS>MOLECULE
3NA
 37 40 0 0 0
SMALL
GASTEIGER

@<TRIPOS>ATOM
      1 C           3.9690    1.4390   -1.3120 C.ar    1  LIG1       -0.0376
      2 C           2.0500    2.5790    0.3530 C.ar    1  LIG1       -0.0523
      3 C           3.2000    0.6170   -0.4950 C.ar    1  LIG1        0.0498
      4 C           3.7780    2.8030   -1.2860 C.ar    1  LIG1       -0.0598
      5 C           2.8200    3.3670   -0.4550 C.ar    1  LIG1       -0.0611
      6 C           2.2270    1.1940    0.3420 C.ar    1  LIG1        0.0034
      7 C           1.5970    0.0810    1.0570 C.ar    1  LIG1       -0.0158
      8 C          -0.8390    0.2230    1.3740 C.ar    1  LIG1        0.0841
      9 S          -1.7200    1.6110    0.8150 S.2     1  LIG1       -0.0688
     10 N           3.1480   -0.7450   -0.2990 N.ar    1  LIG1       -0.3356
     11 C           2.1890   -1.0450    0.6300 C.ar    1  LIG1        0.0099
     12 C           0.4930    0.1820    2.0770 C.3     1  LIG1        0.0233
     13 F          -4.5460    2.4170   -0.7290 F       1  LIG1       -0.2042
     14 C           3.9960   -1.7260   -0.9810 C.3     1  LIG1        0.1202
     15 F          -3.4710   -2.8830    0.2010 F       1  LIG1       -0.2002
     16 F          -5.7540   -2.1510   -1.0510 F       1  LIG1       -0.2023
     17 C          -2.7870   -0.6010    0.4060 C.ar    1  LIG1        0.1192
     18 C          -5.1720    0.1360   -0.9020 C.ar    1  LIG1        0.0129
     19 C          -3.7210   -1.5740   -0.0200 C.ar    1  LIG1        0.1849
     20 C          -3.1160    0.7470    0.1390 C.ar    1  LIG1        0.0773
     21 C          -4.2780    1.1130   -0.4980 C.ar    1  LIG1        0.1420
     22 C          -4.8800   -1.2000   -0.6560 C.ar    1  LIG1        0.1633
     23 C           5.3050   -1.8540   -0.2450 C.2     1  LIG1        0.3247
     24 O           5.5090   -1.1940    0.7460 O.2     1  LIG1       -0.2490
     25 O           6.2450   -2.7020   -0.6920 O.3     1  LIG1       -0.4794
     26 N          -1.6050   -0.7750    1.0340 N.ar    1  LIG1       -0.2406
     27 H           4.7170    1.0090   -1.9620 H       1  LIG1        0.0638
     28 H           1.3060    3.0250    0.9960 H       1  LIG1        0.0624
     29 H           4.3780    3.4390   -1.9190 H       1  LIG1        0.0618
     30 H           2.6820    4.4390   -0.4470 H       1  LIG1        0.0618
     31 H           1.9460   -2.0410    0.9700 H       1  LIG1        0.0812
     32 H           0.5280   -0.6840    2.7380 H       1  LIG1        0.0383
     33 H           0.6220    1.0920    2.6640 H       1  LIG1        0.0383
     34 H           4.1840   -1.3960   -2.0020 H       1  LIG1        0.0607
     35 H           3.4930   -2.6920   -0.9970 H       1  LIG1        0.0607
     36 H          -6.0890    0.4100   -1.4030 H       1  LIG1        0.0676
     37 H           7.0860   -2.7850   -0.2200 H       1  LIG1        0.2951
@<TRIPOS>BOND
     1     1     3   ar
     2     1     4   ar
     3     1    27    1
     4     2     5   ar
     5     2     6   ar
     6     2    28    1
     7     3     6   ar
     8     3    10   ar
     9     4     5   ar
    10     4    29    1
    11     5    30    1
    12     6     7   ar
    13     7    11   ar
    14     7    12    1
    15     8     9   ar
    16     8    12    1
    17     8    26   ar
    18     9    20   ar
    19    10    11   ar
    20    10    14    1
    21    11    31    1
    22    12    32    1
    23    12    33    1
    24    13    21    1
    25    14    23    1
    26    14    34    1
    27    14    35    1
    28    15    19    1
    29    16    22    1
    30    17    19   ar
    31    17    20   ar
    32    17    26   ar
    33    18    21   ar
    34    18    22   ar
    35    18    36    1
    36    19    22   ar
    37    20    21   ar
    38    23    24    2
    39    23    25    1
    40    25    37    1
