3NA
  -OEChem-05232209583D

 37 40  0     0  0  0  0  0  0999 V2000
    3.9690    1.4390   -1.3120 C   0  0  0  0  0  0  0  0  0  0  0  0
    2.0500    2.5790    0.3530 C   0  0  0  0  0  0  0  0  0  0  0  0
    3.2000    0.6170   -0.4950 C   0  0  0  0  0  0  0  0  0  0  0  0
    3.7780    2.8030   -1.2860 C   0  0  0  0  0  0  0  0  0  0  0  0
    2.8200    3.3670   -0.4550 C   0  0  0  0  0  0  0  0  0  0  0  0
    2.2270    1.1940    0.3420 C   0  0  0  0  0  0  0  0  0  0  0  0
    1.5970    0.0810    1.0570 C   0  0  0  0  0  0  0  0  0  0  0  0
   -0.8390    0.2230    1.3740 C   0  0  0  0  0  0  0  0  0  0  0  0
   -1.7200    1.6110    0.8150 S   0  0  0  0  0  0  0  0  0  0  0  0
    3.1480   -0.7450   -0.2990 N   0  0  0  0  0  0  0  0  0  0  0  0
    2.1890   -1.0450    0.6300 C   0  0  0  0  0  0  0  0  0  0  0  0
    0.4930    0.1820    2.0770 C   0  0  0  0  0  0  0  0  0  0  0  0
   -4.5460    2.4170   -0.7290 F   0  0  0  0  0  0  0  0  0  0  0  0
    3.9960   -1.7260   -0.9810 C   0  0  0  0  0  0  0  0  0  0  0  0
   -3.4710   -2.8830    0.2010 F   0  0  0  0  0  0  0  0  0  0  0  0
   -5.7540   -2.1510   -1.0510 F   0  0  0  0  0  0  0  0  0  0  0  0
   -2.7870   -0.6010    0.4060 C   0  0  0  0  0  0  0  0  0  0  0  0
   -5.1720    0.1360   -0.9020 C   0  0  0  0  0  0  0  0  0  0  0  0
   -3.7210   -1.5740   -0.0200 C   0  0  0  0  0  0  0  0  0  0  0  0
   -3.1160    0.7470    0.1390 C   0  0  0  0  0  0  0  0  0  0  0  0
   -4.2780    1.1130   -0.4980 C   0  0  0  0  0  0  0  0  0  0  0  0
   -4.8800   -1.2000   -0.6560 C   0  0  0  0  0  0  0  0  0  0  0  0
    5.3050   -1.8540   -0.2450 C   0  0  0  0  0  0  0  0  0  0  0  0
    5.5090   -1.1940    0.7460 O   0  0  0  0  0  0  0  0  0  0  0  0
    6.2450   -2.7020   -0.6920 O   0  0  0  0  0  0  0  0  0  0  0  0
   -1.6050   -0.7750    1.0340 N   0  0  0  0  0  0  0  0  0  0  0  0
    4.7170    1.0090   -1.9620 H   0  0  0  0  0  0  0  0  0  0  0  0
    1.3060    3.0250    0.9960 H   0  0  0  0  0  0  0  0  0  0  0  0
    4.3780    3.4390   -1.9190 H   0  0  0  0  0  0  0  0  0  0  0  0
    2.6820    4.4390   -0.4470 H   0  0  0  0  0  0  0  0  0  0  0  0
    1.9460   -2.0410    0.9700 H   0  0  0  0  0  0  0  0  0  0  0  0
    0.5280   -0.6840    2.7380 H   0  0  0  0  0  0  0  0  0  0  0  0
    0.6220    1.0920    2.6640 H   0  0  0  0  0  0  0  0  0  0  0  0
    4.1840   -1.3960   -2.0020 H   0  0  0  0  0  0  0  0  0  0  0  0
    3.4930   -2.6920   -0.9970 H   0  0  0  0  0  0  0  0  0  0  0  0
   -6.0890    0.4100   -1.4030 H   0  0  0  0  0  0  0  0  0  0  0  0
    7.0860   -2.7850   -0.2200 H   0  0  0  0  0  0  0  0  0  0  0  0
  1  3  1  0  0  0  0
  1  4  2  0  0  0  0
  1 27  1  0  0  0  0
  2  5  2  0  0  0  0
  2  6  1  0  0  0  0
  2 28  1  0  0  0  0
  3  6  2  0  0  0  0
  3 10  1  0  0  0  0
  4  5  1  0  0  0  0
  4 29  1  0  0  0  0
  5 30  1  0  0  0  0
  6  7  1  0  0  0  0
  7 11  2  0  0  0  0
  7 12  1  0  0  0  0
  8  9  1  0  0  0  0
  8 12  1  0  0  0  0
  8 26  2  0  0  0  0
  9 20  1  0  0  0  0
 10 11  1  0  0  0  0
 10 14  1  0  0  0  0
 11 31  1  0  0  0  0
 12 32  1  0  0  0  0
 12 33  1  0  0  0  0
 13 21  1  0  0  0  0
 14 23  1  0  0  0  0
 14 34  1  0  0  0  0
 14 35  1  0  0  0  0
 15 19  1  0  0  0  0
 16 22  1  0  0  0  0
 17 19  1  0  0  0  0
 17 20  2  0  0  0  0
 17 26  1  0  0  0  0
 18 21  2  0  0  0  0
 18 22  1  0  0  0  0
 18 36  1  0  0  0  0
 19 22  2  0  0  0  0
 20 21  1  0  0  0  0
 23 24  2  0  0  0  0
 23 25  1  0  0  0  0
 25 37  1  0  0  0  0
M  END
> <OPENEYE_ISO_SMILES>
c1ccc2c(c1)c(cn2CC(=O)O)Cc3nc4c(c(cc(c4s3)F)F)F

> <OPENEYE_INCHI>
InChI=1S/C18H11F3N2O2S/c19-11-6-12(20)18-17(16(11)21)22-14(26-18)5-9-7-23(8-15(24)25)13-4-2-1-3-10(9)13/h1-4,6-7H,5,8H2,(H,24,25)

> <OPENEYE_INCHIKEY>
KYHVTMFADJNSGS-UHFFFAOYSA-N

> <FORMULA>
C18H11F3N2O2S

$$$$
