7CA
 OpenBabel10042221393D

 69 72  0  0  0  0  0  0  0  0999 V2000
  -22.8470   29.8920   63.9320 O   0  0  0  0  0  0  0  0  0  0  0  0
  -23.1850   28.4940   67.6770 O   0  0  0  0  0  0  0  0  0  0  0  0
  -22.9290   30.7380   68.6600 O   0  0  0  0  0  0  0  0  0  0  0  0
  -22.9910   28.5260   64.1160 C   0  0  0  0  0  0  0  0  0  0  0  0
  -23.1180   28.0100   65.4440 C   0  0  0  0  0  0  0  0  0  0  0  0
  -23.0720   28.9140   66.5320 C   0  0  0  0  0  0  0  0  0  0  0  0
  -22.3630   34.3500   65.5480 O   0  0  0  0  0  0  0  0  0  0  0  0
  -22.8950   30.2850   66.3030 C   0  0  0  0  0  0  0  0  0  0  0  0
  -22.7830   30.7630   64.9930 C   0  0  0  0  0  0  0  0  0  0  0  0
  -22.8350   31.1870   67.3670 C   0  0  0  0  0  0  0  0  0  0  0  0
  -22.6730   32.5530   67.1140 C   0  0  0  0  0  0  0  0  0  0  0  0
  -22.5660   33.0150   65.8010 C   0  0  0  0  0  0  0  0  0  0  0  0
  -22.6100   32.1160   64.7460 C   0  0  0  0  0  0  0  0  0  0  0  0
  -23.2310   26.6430   65.7120 O   0  0  0  0  0  0  0  0  0  0  0  0
  -22.0400   25.8960   65.4310 C   0  0  2  0  0  0  0  0  0  0  0  0
  -22.3700   24.5680   64.9810 O   0  0  0  0  0  0  0  0  0  0  0  0
  -23.1570   23.8110   65.9310 C   0  0  2  0  0  0  0  0  0  0  0  0
  -22.3860   23.6410   67.2440 C   0  0  2  0  0  0  0  0  0  0  0  0
  -23.4560   22.4190   65.3380 C   0  0  0  0  0  0  0  0  0  0  0  0
  -23.1930   22.9570   68.1930 O   0  0  0  0  0  0  0  0  0  0  0  0
  -21.9930   25.0100   67.7950 C   0  0  1  0  0  0  0  0  0  0  0  0
  -21.2070   24.8490   68.9660 O   0  0  0  0  0  0  0  0  0  0  0  0
  -21.2200   25.8200   66.7400 C   0  0  1  0  0  0  0  0  0  0  0  0
  -19.9480   25.2300   66.5020 O   0  0  0  0  0  0  0  0  0  0  0  0
  -22.8720   27.7230   62.9790 C   0  0  0  0  0  0  0  0  0  0  0  0
  -21.8330   27.9830   62.0800 C   0  0  0  0  0  0  0  0  0  0  0  0
  -21.6320   27.2030   60.9460 C   0  0  0  0  0  0  0  0  0  0  0  0
  -22.4800   26.1300   60.6890 C   0  0  0  0  0  0  0  0  0  0  0  0
  -23.5390   25.8550   61.5660 C   0  0  0  0  0  0  0  0  0  0  0  0
  -23.7290   26.6510   62.7090 C   0  0  0  0  0  0  0  0  0  0  0  0
  -22.3010   25.3210   59.5700 O   0  0  0  0  0  0  0  0  0  0  0  0
  -23.4440   24.4660   59.3850 C   0  0  0  0  0  0  0  0  0  0  0  0
  -22.4790   32.6090   63.3190 C   0  0  0  0  0  0  0  0  0  0  0  0
  -21.1270   33.2390   62.9840 C   0  0  0  0  0  0  0  0  0  0  0  0
  -21.0390   34.2680   62.0590 C   0  0  0  0  0  0  0  0  0  0  0  0
  -19.6790   34.8820   61.7330 C   0  0  0  0  0  0  0  0  0  0  0  0
  -22.2980   34.7870   61.3580 C   0  0  0  0  0  0  0  0  0  0  0  0
  -22.8860   31.3809   69.4116 H   0  0  0  0  0  0  0  0  0  0  0  0
  -22.2880   34.6711   64.6145 H   0  0  0  0  0  0  0  0  0  0  0  0
  -22.6298   33.2649   67.9515 H   0  0  0  0  0  0  0  0  0  0  0  0
  -21.4620   26.3871   64.6343 H   0  0  0  0  0  0  0  0  0  0  0  0
  -24.0944   24.3500   66.1330 H   0  0  0  0  0  0  0  0  0  0  0  0
  -21.4764   23.0529   67.0522 H   0  0  0  0  0  0  0  0  0  0  0  0
  -23.6108   21.6982   66.1544 H   0  0  0  0  0  0  0  0  0  0  0  0
  -24.3633   22.4716   64.7183 H   0  0  0  0  0  0  0  0  0  0  0  0
  -22.6071   22.0944   64.7183 H   0  0  0  0  0  0  0  0  0  0  0  0
  -22.9049   23.2012   69.1081 H   0  0  0  0  0  0  0  0  0  0  0  0
  -22.9087   25.5640   68.0491 H   0  0  0  0  0  0  0  0  0  0  0  0
  -21.7786   24.9661   69.7658 H   0  0  0  0  0  0  0  0  0  0  0  0
  -21.0616   26.8417   67.1156 H   0  0  0  0  0  0  0  0  0  0  0  0
  -19.5112   25.0274   67.3670 H   0  0  0  0  0  0  0  0  0  0  0  0
  -21.1559   28.8277   62.2750 H   0  0  0  0  0  0  0  0  0  0  0  0
  -20.8069   27.4332   60.2559 H   0  0  0  0  0  0  0  0  0  0  0  0
  -24.2208   25.0168   61.3597 H   0  0  0  0  0  0  0  0  0  0  0  0
  -24.5584   26.4290   63.3967 H   0  0  0  0  0  0  0  0  0  0  0  0
  -23.8419   24.1683   60.3664 H   0  0  0  0  0  0  0  0  0  0  0  0
  -24.2198   25.0073   58.8236 H   0  0  0  0  0  0  0  0  0  0  0  0
  -23.1438   23.5689   58.8236 H   0  0  0  0  0  0  0  0  0  0  0  0
  -22.6353   31.7538   62.6450 H   0  0  0  0  0  0  0  0  0  0  0  0
  -23.2315   33.4014   63.1930 H   0  0  0  0  0  0  0  0  0  0  0  0
  -20.7184   33.6285   63.9281 H   0  0  0  0  0  0  0  0  0  0  0  0
  -20.5870   32.4171   62.4911 H   0  0  0  0  0  0  0  0  0  0  0  0
  -21.1782   35.0040   62.8645 H   0  0  0  0  0  0  0  0  0  0  0  0
  -19.1508   35.1205   62.6679 H   0  0  0  0  0  0  0  0  0  0  0  0
  -19.0838   34.1653   61.1481 H   0  0  0  0  0  0  0  0  0  0  0  0
  -19.8230   35.8024   61.1481 H   0  0  0  0  0  0  0  0  0  0  0  0
  -23.0382   35.0921   62.1123 H   0  0  0  0  0  0  0  0  0  0  0  0
  -22.0377   35.6512   60.7291 H   0  0  0  0  0  0  0  0  0  0  0  0
  -22.7223   33.9904   60.7291 H   0  0  0  0  0  0  0  0  0  0  0  0
  3 38  1  0  0  0  0
  4  1  1  0  0  0  0
  5  4  2  0  0  0  0
  6  5  1  0  0  0  0
  6  2  2  0  0  0  0
  7 39  1  0  0  0  0
  8  6  1  0  0  0  0
  9  1  1  0  0  0  0
  9  8  2  0  0  0  0
 10  8  1  0  0  0  0
 10  3  1  0  0  0  0
 11 10  2  0  0  0  0
 11 40  1  0  0  0  0
 12 11  1  0  0  0  0
 12  7  1  0  0  0  0
 13  9  1  0  0  0  0
 13 12  2  0  0  0  0
 14  5  1  0  0  0  0
 15 14  1  0  0  0  0
 15 41  1  6  0  0  0
 16 15  1  0  0  0  0
 17 16  1  0  0  0  0
 17 42  1  1  0  0  0
 18 17  1  0  0  0  0
 18 43  1  6  0  0  0
 19 17  1  0  0  0  0
 19 44  1  0  0  0  0
 19 45  1  0  0  0  0
 19 46  1  0  0  0  0
 20 18  1  0  0  0  0
 20 47  1  0  0  0  0
 21 18  1  0  0  0  0
 21 48  1  1  0  0  0
 22 21  1  0  0  0  0
 22 49  1  0  0  0  0
 23 21  1  0  0  0  0
 23 15  1  0  0  0  0
 23 50  1  1  0  0  0
 24 23  1  0  0  0  0
 24 51  1  0  0  0  0
 25  4  1  0  0  0  0
 26 25  2  0  0  0  0
 26 52  1  0  0  0  0
 27 26  1  0  0  0  0
 27 53  1  0  0  0  0
 28 27  2  0  0  0  0
 29 28  1  0  0  0  0
 29 54  1  0  0  0  0
 30 29  2  0  0  0  0
 30 25  1  0  0  0  0
 30 55  1  0  0  0  0
 31 28  1  0  0  0  0
 32 31  1  0  0  0  0
 32 56  1  0  0  0  0
 32 57  1  0  0  0  0
 32 58  1  0  0  0  0
 33 13  1  0  0  0  0
 33 59  1  0  0  0  0
 33 60  1  0  0  0  0
 34 33  1  0  0  0  0
 34 61  1  0  0  0  0
 34 62  1  0  0  0  0
 35 34  1  0  0  0  0
 35 63  1  0  0  0  0
 36 35  1  0  0  0  0
 36 64  1  0  0  0  0
 36 65  1  0  0  0  0
 36 66  1  0  0  0  0
 37 35  1  0  0  0  0
 37 67  1  0  0  0  0
 37 68  1  0  0  0  0
 37 69  1  0  0  0  0
M  END
$$$$
