@<TRIPOS>MOLECULE
7CA
 69 72 0 0 0
SMALL
GASTEIGER

@<TRIPOS>ATOM
      1 O         -22.8470   29.8920   63.9320 O.2     1  UNL1       -0.4504
      2 O         -23.1850   28.4940   67.6770 O.2     1  UNL1       -0.2830
      3 O         -22.9290   30.7380   68.6600 O.3     1  UNL1       -0.5058
      4 C         -22.9910   28.5260   64.1160 C.ar    1  UNL1        0.1809
      5 C         -23.1180   28.0100   65.4440 C.ar    1  UNL1        0.2138
      6 C         -23.0720   28.9140   66.5320 C.ar    1  UNL1        0.2382
      7 O         -22.3630   34.3500   65.5480 O.3     1  UNL1       -0.5063
      8 C         -22.8950   30.2850   66.3030 C.ar    1  UNL1        0.1094
      9 C         -22.7830   30.7630   64.9930 C.ar    1  UNL1        0.1497
     10 C         -22.8350   31.1870   67.3670 C.ar    1  UNL1        0.1348
     11 C         -22.6730   32.5530   67.1140 C.ar    1  UNL1        0.0225
     12 C         -22.5660   33.0150   65.8010 C.ar    1  UNL1        0.1270
     13 C         -22.6100   32.1160   64.7460 C.ar    1  UNL1        0.0372
     14 O         -23.2310   26.6430   65.7120 O.3     1  UNL1       -0.4532
     15 C         -22.0400   25.8960   65.4310 C.3     1  UNL1        0.2311
     16 O         -22.3700   24.5680   64.9810 O.3     1  UNL1       -0.3339
     17 C         -23.1570   23.8110   65.9310 C.3     1  UNL1        0.0883
     18 C         -22.3860   23.6410   67.2440 C.3     1  UNL1        0.1096
     19 C         -23.4560   22.4190   65.3380 C.3     1  UNL1       -0.0360
     20 O         -23.1930   22.9570   68.1930 O.3     1  UNL1       -0.3866
     21 C         -21.9930   25.0100   67.7950 C.3     1  UNL1        0.1151
     22 O         -21.2070   24.8490   68.9660 O.3     1  UNL1       -0.3864
     23 C         -21.2200   25.8200   66.7400 C.3     1  UNL1        0.1454
     24 O         -19.9480   25.2300   66.5020 O.3     1  UNL1       -0.3829
     25 C         -22.8720   27.7230   62.9790 C.ar    1  UNL1        0.0213
     26 C         -21.8330   27.9830   62.0800 C.ar    1  UNL1       -0.0475
     27 C         -21.6320   27.2030   60.9460 C.ar    1  UNL1       -0.0193
     28 C         -22.4800   26.1300   60.6890 C.ar    1  UNL1        0.1201
     29 C         -23.5390   25.8550   61.5660 C.ar    1  UNL1       -0.0193
     30 C         -23.7290   26.6510   62.7090 C.ar    1  UNL1       -0.0475
     31 O         -22.3010   25.3210   59.5700 O.3     1  UNL1       -0.4951
     32 C         -23.4440   24.4660   59.3850 C.3     1  UNL1        0.0788
     33 C         -22.4790   32.6090   63.3190 C.3     1  UNL1       -0.0205
     34 C         -21.1270   33.2390   62.9840 C.3     1  UNL1       -0.0465
     35 C         -21.0390   34.2680   62.0590 C.3     1  UNL1       -0.0464
     36 C         -19.6790   34.8820   61.7330 C.3     1  UNL1       -0.0627
     37 C         -22.2980   34.7870   61.3580 C.3     1  UNL1       -0.0627
     38 H         -22.8860   31.3809   69.4116 H       1  UNL1        0.2922
     39 H         -22.2880   34.6711   64.6145 H       1  UNL1        0.2921
     40 H         -22.6298   33.2649   67.9515 H       1  UNL1        0.0691
     41 H         -21.4620   26.3871   64.6343 H       1  UNL1        0.1084
     42 H         -24.0944   24.3500   66.1330 H       1  UNL1        0.0621
     43 H         -21.4764   23.0529   67.0522 H       1  UNL1        0.0646
     44 H         -23.6108   21.6982   66.1544 H       1  UNL1        0.0255
     45 H         -24.3633   22.4716   64.7183 H       1  UNL1        0.0255
     46 H         -22.6071   22.0944   64.7183 H       1  UNL1        0.0255
     47 H         -22.9049   23.2012   69.1081 H       1  UNL1        0.2100
     48 H         -22.9087   25.5640   68.0491 H       1  UNL1        0.0648
     49 H         -21.7786   24.9661   69.7658 H       1  UNL1        0.2100
     50 H         -21.0616   26.8417   67.1156 H       1  UNL1        0.0683
     51 H         -19.5112   25.0274   67.3670 H       1  UNL1        0.2102
     52 H         -21.1559   28.8277   62.2750 H       1  UNL1        0.0626
     53 H         -20.8069   27.4332   60.2559 H       1  UNL1        0.0654
     54 H         -24.2208   25.0168   61.3597 H       1  UNL1        0.0654
     55 H         -24.5584   26.4290   63.3967 H       1  UNL1        0.0626
     56 H         -23.8419   24.1683   60.3664 H       1  UNL1        0.0660
     57 H         -24.2198   25.0073   58.8236 H       1  UNL1        0.0660
     58 H         -23.1438   23.5689   58.8236 H       1  UNL1        0.0660
     59 H         -22.6353   31.7538   62.6450 H       1  UNL1        0.0316
     60 H         -23.2315   33.4014   63.1930 H       1  UNL1        0.0316
     61 H         -20.7184   33.6285   63.9281 H       1  UNL1        0.0271
     62 H         -20.5870   32.4171   62.4911 H       1  UNL1        0.0271
     63 H         -21.1782   35.0040   62.8645 H       1  UNL1        0.0296
     64 H         -19.1508   35.1205   62.6679 H       1  UNL1        0.0232
     65 H         -19.0838   34.1653   61.1481 H       1  UNL1        0.0232
     66 H         -19.8230   35.8024   61.1481 H       1  UNL1        0.0232
     67 H         -23.0382   35.0921   62.1123 H       1  UNL1        0.0232
     68 H         -22.0377   35.6512   60.7291 H       1  UNL1        0.0232
     69 H         -22.7223   33.9904   60.7291 H       1  UNL1        0.0232
@<TRIPOS>BOND
     1     4     1   ar
     2     5     4   ar
     3     6     5   ar
     4     6     2    2
     5     8     6   ar
     6     9     1   ar
     7     9     8   ar
     8    10     8   ar
     9    10     3    1
    10    11    10   ar
    11    12    11   ar
    12    12     7    1
    13    13     9   ar
    14    13    12   ar
    15    14     5    1
    16    15    14    1
    17    16    15    1
    18    17    16    1
    19    18    17    1
    20    19    17    1
    21    20    18    1
    22    21    18    1
    23    22    21    1
    24    23    21    1
    25    23    15    1
    26    24    23    1
    27    25     4    1
    28    26    25   ar
    29    27    26   ar
    30    28    27   ar
    31    29    28   ar
    32    30    29   ar
    33    30    25   ar
    34    31    28    1
    35    32    31    1
    36    33    13    1
    37    34    33    1
    38    35    34    1
    39    36    35    1
    40    37    35    1
    41     3    38    1
    42     7    39    1
    43    11    40    1
    44    15    41    1
    45    17    42    1
    46    18    43    1
    47    19    44    1
    48    19    45    1
    49    19    46    1
    50    20    47    1
    51    21    48    1
    52    22    49    1
    53    23    50    1
    54    24    51    1
    55    26    52    1
    56    27    53    1
    57    29    54    1
    58    30    55    1
    59    32    56    1
    60    32    57    1
    61    32    58    1
    62    33    59    1
    63    33    60    1
    64    34    61    1
    65    34    62    1
    66    35    63    1
    67    36    64    1
    68    36    65    1
    69    36    66    1
    70    37    67    1
    71    37    68    1
    72    37    69    1
