3C3
  -OEChem-02242319213D

 35 37  0     0  0  0  0  0  0999 V2000
    1.4460   -2.4460    1.4100 N   0  0  0  0  0  0  0  0  0  0  0  0
    2.3010   -1.8800    0.4790 C   0  0  0  0  0  0  0  0  0  0  0  0
    3.5770   -2.3290    0.1920 N   0  0  0  0  0  0  0  0  0  0  0  0
    4.1250   -1.4900   -0.8110 O   0  0  0  0  0  0  0  0  0  0  0  0
    3.1300   -0.5260   -1.1200 N   0  0  0  0  0  0  0  0  0  0  0  0
    2.0150   -0.8030   -0.2890 C   0  0  0  0  0  0  0  0  0  0  0  0
    0.7600   -0.0530   -0.2690 C   0  0  0  0  0  0  0  0  0  0  0  0
   -0.4560   -0.5670   -0.1650 N   0  0  0  0  0  0  0  0  0  0  0  0
    0.6330    1.3040   -0.3450 N   0  0  0  0  0  0  0  0  0  0  0  0
    1.7170    2.2820   -0.4670 C   0  0  0  0  0  0  0  0  0  0  0  0
    2.1710    2.7160    0.9280 C   0  0  0  0  0  0  0  0  0  0  0  0
    3.3040    3.7370    0.8010 C   0  0  0  0  0  0  0  0  0  0  0  0
   -0.7440    1.5770   -0.2900 N   0  0  0  0  0  0  0  0  0  0  0  0
   -1.3650    0.4190   -0.1820 C   0  0  0  0  0  0  0  0  0  0  0  0
   -2.8240    0.2380   -0.0920 C   0  0  0  0  0  0  0  0  0  0  0  0
   -3.7860    1.2790   -0.1030 N   0  0  0  0  0  0  0  0  0  0  0  0
   -5.0620    0.6660   -0.0020 O   0  0  0  0  0  0  0  0  0  0  0  0
   -4.8310   -0.7310    0.0780 N   0  0  0  0  0  0  0  0  0  0  0  0
   -3.4600   -0.9430    0.0190 C   0  0  0  0  0  0  0  0  0  0  0  0
   -2.8390   -2.1860    0.0680 N   0  0  0  0  0  0  0  0  0  0  0  0
    0.5640   -2.0680    1.5510 H   0  0  0  0  0  0  0  0  0  0  0  0
    1.7290   -3.2200    1.9210 H   0  0  0  0  0  0  0  0  0  0  0  0
    4.0200   -3.0870    0.6050 H   0  0  0  0  0  0  0  0  0  0  0  0
    3.2020    0.1900   -1.7710 H   0  0  0  0  0  0  0  0  0  0  0  0
    1.3620    3.1510   -1.0200 H   0  0  0  0  0  0  0  0  0  0  0  0
    2.5550    1.8310   -0.9980 H   0  0  0  0  0  0  0  0  0  0  0  0
    2.5260    1.8460    1.4820 H   0  0  0  0  0  0  0  0  0  0  0  0
    1.3330    3.1670    1.4590 H   0  0  0  0  0  0  0  0  0  0  0  0
    3.6270    4.0460    1.7950 H   0  0  0  0  0  0  0  0  0  0  0  0
    4.1420    3.2850    0.2700 H   0  0  0  0  0  0  0  0  0  0  0  0
    2.9490    4.6060    0.2480 H   0  0  0  0  0  0  0  0  0  0  0  0
   -3.6070    2.2300   -0.1730 H   0  0  0  0  0  0  0  0  0  0  0  0
   -5.5120   -1.4180    0.1580 H   0  0  0  0  0  0  0  0  0  0  0  0
   -1.8720   -2.2470    0.0210 H   0  0  0  0  0  0  0  0  0  0  0  0
   -3.3720   -2.9920    0.1490 H   0  0  0  0  0  0  0  0  0  0  0  0
  1  2  1  0  0  0  0
  1 21  1  0  0  0  0
  1 22  1  0  0  0  0
  2  3  1  0  0  0  0
  2  6  2  0  0  0  0
  3  4  1  0  0  0  0
  3 23  1  0  0  0  0
  4  5  1  0  0  0  0
  5  6  1  0  0  0  0
  5 24  1  0  0  0  0
  6  7  1  0  0  0  0
  7  8  2  0  0  0  0
  7  9  1  0  0  0  0
  8 14  1  0  0  0  0
  9 10  1  0  0  0  0
  9 13  1  0  0  0  0
 10 11  1  0  0  0  0
 10 25  1  0  0  0  0
 10 26  1  0  0  0  0
 11 12  1  0  0  0  0
 11 27  1  0  0  0  0
 11 28  1  0  0  0  0
 12 29  1  0  0  0  0
 12 30  1  0  0  0  0
 12 31  1  0  0  0  0
 13 14  2  0  0  0  0
 14 15  1  0  0  0  0
 15 16  1  0  0  0  0
 15 19  2  0  0  0  0
 16 17  1  0  0  0  0
 16 32  1  0  0  0  0
 17 18  1  0  0  0  0
 18 19  1  0  0  0  0
 18 33  1  0  0  0  0
 19 20  1  0  0  0  0
 20 34  1  0  0  0  0
 20 35  1  0  0  0  0
M  END
> <OPENEYE_ISO_SMILES>
CCCn1c(nc(n1)C2=C(NON2)N)C3=C(NON3)N

> <OPENEYE_INCHI>
InChI=1S/C9H15N9O2/c1-2-3-18-9(5-7(11)17-20-15-5)12-8(13-18)4-6(10)16-19-14-4/h14-17H,2-3,10-11H2,1H3

> <OPENEYE_INCHIKEY>
AZHWQKVREXJRBF-UHFFFAOYSA-N

> <FORMULA>
C9H15N9O2

$$$$
