3C3
  Mrv15b2303062313482D          

 20 22  0  0  0  0            999 V2000
    1.9892    0.8117    0.0000 N   0  0  0  0  0  0  0  0  0  0  0  0
    1.9892   -0.0133    0.0000 C   0  0  0  0  0  0  0  0  0  0  0  0
    2.6566   -0.4982    0.0000 N   0  0  0  0  0  0  0  0  0  0  0  0
    2.4017   -1.2829    0.0000 O   0  0  0  0  0  0  0  0  0  0  0  0
    1.5767   -1.2829    0.0000 N   0  0  0  0  0  0  0  0  0  0  0  0
    1.3217   -0.4982    0.0000 C   0  0  0  0  0  0  0  0  0  0  0  0
    0.5371   -0.2433    0.0000 C   0  0  0  0  0  0  0  0  0  0  0  0
   -0.1303   -0.7282    0.0000 N   0  0  0  0  0  0  0  0  0  0  0  0
    0.2822    0.5413    0.0000 N   0  0  0  0  0  0  0  0  0  0  0  0
    0.7671    1.2088    0.0000 C   0  0  0  0  0  0  0  0  0  0  0  0
    0.4315    1.9624    0.0000 C   0  0  0  0  0  0  0  0  0  0  0  0
    0.9164    2.6299    0.0000 C   0  0  0  0  0  0  0  0  0  0  0  0
   -0.5428    0.5413    0.0000 N   0  0  0  0  0  0  0  0  0  0  0  0
   -0.7978   -0.2433    0.0000 C   0  0  0  0  0  0  0  0  0  0  0  0
   -1.5824   -0.4982    0.0000 C   0  0  0  0  0  0  0  0  0  0  0  0
   -1.8373   -1.2829    0.0000 N   0  0  0  0  0  0  0  0  0  0  0  0
   -2.6623   -1.2829    0.0000 O   0  0  0  0  0  0  0  0  0  0  0  0
   -2.9173   -0.4982    0.0000 N   0  0  0  0  0  0  0  0  0  0  0  0
   -2.2498   -0.0133    0.0000 C   0  0  0  0  0  0  0  0  0  0  0  0
   -2.2498    0.8117    0.0000 N   0  0  0  0  0  0  0  0  0  0  0  0
  1  2  1  0  0  0  0
  2  3  1  0  0  0  0
  2  6  2  0  0  0  0
  3  4  1  0  0  0  0
  4  5  1  0  0  0  0
  5  6  1  0  0  0  0
  6  7  1  0  0  0  0
  7  8  4  0  0  0  0
  7  9  4  0  0  0  0
  8 14  4  0  0  0  0
  9 10  1  0  0  0  0
  9 13  4  0  0  0  0
 10 11  1  0  0  0  0
 11 12  1  0  0  0  0
 13 14  4  0  0  0  0
 14 15  1  0  0  0  0
 15 16  1  0  0  0  0
 15 19  2  0  0  0  0
 16 17  1  0  0  0  0
 17 18  1  0  0  0  0
 18 19  1  0  0  0  0
 19 20  1  0  0  0  0
M  END
