@<TRIPOS>MOLECULE
3C3
 35 37 0 0 0
SMALL
GASTEIGER

@<TRIPOS>ATOM
      1 N           1.4460   -2.4460    1.4100 N.pl3   1  LIG1       -0.2460
      2 C           2.3010   -1.8800    0.4790 C.2     1  LIG1        0.3224
      3 N           3.5770   -2.3290    0.1920 N.4     1  LIG1       -0.1036
      4 O           4.1250   -1.4900   -0.8110 O.3     1  LIG1       -0.0721
      5 N           3.1300   -0.5260   -1.1200 N.4     1  LIG1       -0.2112
      6 C           2.0150   -0.8030   -0.2890 C.2     1  LIG1        0.1974
      7 C           0.7600   -0.0530   -0.2690 C.ar    1  LIG1        0.1855
      8 N          -0.4560   -0.5670   -0.1650 N.ar    1  LIG1       -0.2031
      9 N           0.6330    1.3040   -0.3450 N.ar    1  LIG1       -0.2429
     10 C           1.7170    2.2820   -0.4670 C.3     1  LIG1        0.0436
     11 C           2.1710    2.7160    0.9280 C.3     1  LIG1       -0.0361
     12 C           3.3040    3.7370    0.8010 C.3     1  LIG1       -0.0636
     13 N          -0.7440    1.5770   -0.2900 N.ar    1  LIG1       -0.1473
     14 C          -1.3650    0.4190   -0.1820 C.ar    1  LIG1        0.2081
     15 C          -2.8240    0.2380   -0.0920 C.2     1  LIG1        0.1994
     16 N          -3.7860    1.2790   -0.1030 N.4     1  LIG1       -0.2112
     17 O          -5.0620    0.6660   -0.0020 O.3     1  LIG1       -0.0721
     18 N          -4.8310   -0.7310    0.0780 N.4     1  LIG1       -0.1036
     19 C          -3.4600   -0.9430    0.0190 C.2     1  LIG1        0.3224
     20 N          -2.8390   -2.1860    0.0680 N.pl3   1  LIG1       -0.2460
     21 H           0.5640   -2.0680    1.5510 H       1  LIG1        0.2884
     22 H           1.7290   -3.2200    1.9210 H       1  LIG1        0.2884
     23 H           4.0200   -3.0870    0.6050 H       1  LIG1        0.3509
     24 H           3.2020    0.1900   -1.7710 H       1  LIG1        0.1988
     25 H           1.3620    3.1510   -1.0200 H       1  LIG1        0.0509
     26 H           2.5550    1.8310   -0.9980 H       1  LIG1        0.0509
     27 H           2.5260    1.8460    1.4820 H       1  LIG1        0.0280
     28 H           1.3330    3.1670    1.4590 H       1  LIG1        0.0280
     29 H           3.6270    4.0460    1.7950 H       1  LIG1        0.0230
     30 H           4.1420    3.2850    0.2700 H       1  LIG1        0.0230
     31 H           2.9490    4.6060    0.2480 H       1  LIG1        0.0230
     32 H          -3.6070    2.2300   -0.1730 H       1  LIG1        0.1988
     33 H          -5.5120   -1.4180    0.1580 H       1  LIG1        0.3509
     34 H          -1.8720   -2.2470    0.0210 H       1  LIG1        0.2884
     35 H          -3.3720   -2.9920    0.1490 H       1  LIG1        0.2884
@<TRIPOS>BOND
     1     1     2    1
     2     1    21    1
     3     1    22    1
     4     2     3    1
     5     2     6    2
     6     3     4    1
     7     3    23    1
     8     4     5    1
     9     5     6    1
    10     5    24    1
    11     6     7    1
    12     7     8   ar
    13     7     9   ar
    14     8    14   ar
    15     9    10    1
    16     9    13   ar
    17    10    11    1
    18    10    25    1
    19    10    26    1
    20    11    12    1
    21    11    27    1
    22    11    28    1
    23    12    29    1
    24    12    30    1
    25    12    31    1
    26    13    14   ar
    27    14    15    1
    28    15    16    1
    29    15    19    2
    30    16    17    1
    31    16    32    1
    32    17    18    1
    33    18    19    1
    34    18    33    1
    35    19    20    1
    36    20    34    1
    37    20    35    1
