@<TRIPOS>MOLECULE
3A3
 38 40 0 0 0
SMALL
GASTEIGER

@<TRIPOS>ATOM
      1 O          -7.8760   -1.7030    0.0010 O.3     1  LIG1       -0.4783
      2 C          -7.0280   -0.6620    0.0010 C.2     1  LIG1        0.3427
      3 O          -7.4580    0.4670    0.0010 O.2     1  LIG1       -0.2472
      4 C          -5.5410   -0.9020    0.0000 C.3     1  LIG1        0.1857
      5 O          -4.8560    0.3530    0.0000 O.3     1  LIG1       -0.4808
      6 C          -3.5260    0.0740    0.0000 C.ar    1  LIG1        0.1220
      7 C          -2.6030    1.1090    0.0000 C.ar    1  LIG1       -0.0100
      8 C          -3.0950   -1.2460   -0.0010 C.ar    1  LIG1       -0.0193
      9 C          -1.7460   -1.5410   -0.0010 C.ar    1  LIG1       -0.0499
     10 C          -0.8070   -0.5120   -0.0010 C.ar    1  LIG1       -0.0077
     11 C          -1.2420    0.8230    0.0000 C.ar    1  LIG1        0.0153
     12 C          -0.0410    1.6910    0.0000 C.2     1  LIG1        0.1181
     13 N          -0.0260    2.9930    0.0010 N.2     1  LIG1       -0.0864
     14 O           1.2090    3.6860    0.0010 O.2     1  LIG1       -0.4087
     15 C           1.1410    0.7960   -0.0060 C.ar    1  LIG1        0.0153
     16 C           2.5070    1.0500   -0.0010 C.ar    1  LIG1       -0.0100
     17 C           0.6750   -0.5290   -0.0010 C.ar    1  LIG1       -0.0077
     18 C           1.5900   -1.5790    0.0000 C.ar    1  LIG1       -0.0499
     19 C           2.9450   -1.3160    0.0010 C.ar    1  LIG1       -0.0193
     20 C           3.4060   -0.0060    0.0000 C.ar    1  LIG1        0.1220
     21 O           4.7430    0.2420    0.0000 O.3     1  LIG1       -0.4808
     22 C           5.3980   -1.0280    0.0010 C.3     1  LIG1        0.1857
     23 C           6.8910   -0.8230    0.0000 C.2     1  LIG1        0.3427
     24 O           7.7140   -1.8830    0.0010 O.3     1  LIG1       -0.4783
     25 O           7.3470    0.2960    0.0000 O.2     1  LIG1       -0.2472
     26 H          -8.8310   -1.5490    0.0010 H       1  LIG1        0.2952
     27 H          -5.2640   -1.4670   -0.8900 H       1  LIG1        0.0815
     28 H          -5.2630   -1.4670    0.8900 H       1  LIG1        0.0815
     29 H          -2.9400    2.1350    0.0010 H       1  LIG1        0.0661
     30 H          -3.8190   -2.0470   -0.0010 H       1  LIG1        0.0654
     31 H          -1.4190   -2.5700   -0.0010 H       1  LIG1        0.0625
     32 H           0.9990    4.6300    0.0020 H       1  LIG1        0.3278
     33 H           2.8680    2.0680   -0.0010 H       1  LIG1        0.0661
     34 H           1.2390   -2.6010    0.0010 H       1  LIG1        0.0625
     35 H           3.6510   -2.1330    0.0020 H       1  LIG1        0.0654
     36 H           5.1080   -1.5860    0.8910 H       1  LIG1        0.0815
     37 H           5.1080   -1.5870   -0.8890 H       1  LIG1        0.0815
     38 H           8.6720   -1.7510    0.0010 H       1  LIG1        0.2952
@<TRIPOS>BOND
     1     1     2    1
     2     1    26    1
     3     2     3    2
     4     2     4    1
     5     4     5    1
     6     4    27    1
     7     4    28    1
     8     5     6    1
     9     6     7   ar
    10     6     8   ar
    11     7    11   ar
    12     7    29    1
    13     8     9   ar
    14     8    30    1
    15     9    10   ar
    16     9    31    1
    17    10    11   ar
    18    10    17    1
    19    11    12    1
    20    12    13    2
    21    12    15    1
    22    13    14    1
    23    14    32    1
    24    15    16   ar
    25    15    17   ar
    26    16    20   ar
    27    16    33    1
    28    17    18   ar
    29    18    19   ar
    30    18    34    1
    31    19    20   ar
    32    19    35    1
    33    20    21    1
    34    21    22    1
    35    22    23    1
    36    22    36    1
    37    22    37    1
    38    23    24    1
    39    23    25    2
    40    24    38    1
