3A3
  Mrv15b2303062313472D          

 25 27  0  0  0  0            999 V2000
    4.7195    1.1422    0.0000 O   0  0  0  0  0  0  0  0  0  0  0  0
    4.1675    0.5291    0.0000 C   0  0  0  0  0  0  0  0  0  0  0  0
    4.4224   -0.2555    0.0000 O   0  0  0  0  0  0  0  0  0  0  0  0
    3.3605    0.7006    0.0000 C   0  0  0  0  0  0  0  0  0  0  0  0
    2.8085    0.0875    0.0000 O   0  0  0  0  0  0  0  0  0  0  0  0
    2.0015    0.2591    0.0000 C   0  0  0  0  0  0  0  0  0  0  0  0
    1.4495   -0.3540    0.0000 C   0  0  0  0  0  0  0  0  0  0  0  0
    1.7466    1.0437    0.0000 C   0  0  0  0  0  0  0  0  0  0  0  0
    0.9396    1.2152    0.0000 C   0  0  0  0  0  0  0  0  0  0  0  0
    0.3876    0.6021    0.0000 C   0  0  0  0  0  0  0  0  0  0  0  0
    0.6425   -0.1825    0.0000 C   0  0  0  0  0  0  0  0  0  0  0  0
   -0.0249   -0.6674    0.0000 C   0  0  0  0  0  0  0  0  0  0  0  0
   -0.0249   -1.4924    0.0000 N   0  0  0  0  0  0  0  0  0  0  0  0
   -0.7394   -1.9049    0.0000 O   0  0  0  0  0  0  0  0  0  0  0  0
   -0.6924   -0.1825    0.0000 C   0  0  0  0  0  0  0  0  0  0  0  0
   -1.4993   -0.3540    0.0000 C   0  0  0  0  0  0  0  0  0  0  0  0
   -0.4374    0.6021    0.0000 C   0  0  0  0  0  0  0  0  0  0  0  0
   -0.9895    1.2152    0.0000 C   0  0  0  0  0  0  0  0  0  0  0  0
   -1.7964    1.0437    0.0000 C   0  0  0  0  0  0  0  0  0  0  0  0
   -2.0514    0.2591    0.0000 C   0  0  0  0  0  0  0  0  0  0  0  0
   -2.8584    0.0875    0.0000 O   0  0  0  0  0  0  0  0  0  0  0  0
   -3.1133   -0.6971    0.0000 C   0  0  0  0  0  0  0  0  0  0  0  0
   -3.9203   -0.8686    0.0000 C   0  0  0  0  0  0  0  0  0  0  0  0
   -4.1752   -1.6532    0.0000 O   0  0  0  0  0  0  0  0  0  0  0  0
   -4.4723   -0.2555    0.0000 O   0  0  0  0  0  0  0  0  0  0  0  0
  1  2  1  0  0  0  0
  2  3  2  0  0  0  0
  2  4  1  0  0  0  0
  4  5  1  0  0  0  0
  5  6  1  0  0  0  0
  6  7  4  0  0  0  0
  6  8  4  0  0  0  0
  7 11  4  0  0  0  0
  8  9  4  0  0  0  0
  9 10  4  0  0  0  0
 10 11  4  0  0  0  0
 10 17  1  0  0  0  0
 11 12  1  0  0  0  0
 12 13  2  0  0  0  0
 12 15  1  0  0  0  0
 13 14  1  0  0  0  0
 15 16  4  0  0  0  0
 15 17  4  0  0  0  0
 16 20  4  0  0  0  0
 17 18  4  0  0  0  0
 18 19  4  0  0  0  0
 19 20  4  0  0  0  0
 20 21  1  0  0  0  0
 21 22  1  0  0  0  0
 22 23  1  0  0  0  0
 23 24  1  0  0  0  0
 23 25  2  0  0  0  0
M  END
