3A3
  -OEChem-02242319213D

 38 40  0     0  0  0  0  0  0999 V2000
   -7.8760   -1.7030    0.0010 O   0  0  0  0  0  0  0  0  0  0  0  0
   -7.0280   -0.6620    0.0010 C   0  0  0  0  0  0  0  0  0  0  0  0
   -7.4580    0.4670    0.0010 O   0  0  0  0  0  0  0  0  0  0  0  0
   -5.5410   -0.9020    0.0000 C   0  0  0  0  0  0  0  0  0  0  0  0
   -4.8560    0.3530    0.0000 O   0  0  0  0  0  0  0  0  0  0  0  0
   -3.5260    0.0740    0.0000 C   0  0  0  0  0  0  0  0  0  0  0  0
   -2.6030    1.1090    0.0000 C   0  0  0  0  0  0  0  0  0  0  0  0
   -3.0950   -1.2460   -0.0010 C   0  0  0  0  0  0  0  0  0  0  0  0
   -1.7460   -1.5410   -0.0010 C   0  0  0  0  0  0  0  0  0  0  0  0
   -0.8070   -0.5120   -0.0010 C   0  0  0  0  0  0  0  0  0  0  0  0
   -1.2420    0.8230    0.0000 C   0  0  0  0  0  0  0  0  0  0  0  0
   -0.0410    1.6910    0.0000 C   0  0  0  0  0  0  0  0  0  0  0  0
   -0.0260    2.9930    0.0010 N   0  0  0  0  0  0  0  0  0  0  0  0
    1.2090    3.6860    0.0010 O   0  0  0  0  0  0  0  0  0  0  0  0
    1.1410    0.7960   -0.0060 C   0  0  0  0  0  0  0  0  0  0  0  0
    2.5070    1.0500   -0.0010 C   0  0  0  0  0  0  0  0  0  0  0  0
    0.6750   -0.5290   -0.0010 C   0  0  0  0  0  0  0  0  0  0  0  0
    1.5900   -1.5790    0.0000 C   0  0  0  0  0  0  0  0  0  0  0  0
    2.9450   -1.3160    0.0010 C   0  0  0  0  0  0  0  0  0  0  0  0
    3.4060   -0.0060    0.0000 C   0  0  0  0  0  0  0  0  0  0  0  0
    4.7430    0.2420    0.0000 O   0  0  0  0  0  0  0  0  0  0  0  0
    5.3980   -1.0280    0.0010 C   0  0  0  0  0  0  0  0  0  0  0  0
    6.8910   -0.8230    0.0000 C   0  0  0  0  0  0  0  0  0  0  0  0
    7.7140   -1.8830    0.0010 O   0  0  0  0  0  0  0  0  0  0  0  0
    7.3470    0.2960    0.0000 O   0  0  0  0  0  0  0  0  0  0  0  0
   -8.8310   -1.5490    0.0010 H   0  0  0  0  0  0  0  0  0  0  0  0
   -5.2640   -1.4670   -0.8900 H   0  0  0  0  0  0  0  0  0  0  0  0
   -5.2630   -1.4670    0.8900 H   0  0  0  0  0  0  0  0  0  0  0  0
   -2.9400    2.1350    0.0010 H   0  0  0  0  0  0  0  0  0  0  0  0
   -3.8190   -2.0470   -0.0010 H   0  0  0  0  0  0  0  0  0  0  0  0
   -1.4190   -2.5700   -0.0010 H   0  0  0  0  0  0  0  0  0  0  0  0
    0.9990    4.6300    0.0020 H   0  0  0  0  0  0  0  0  0  0  0  0
    2.8680    2.0680   -0.0010 H   0  0  0  0  0  0  0  0  0  0  0  0
    1.2390   -2.6010    0.0010 H   0  0  0  0  0  0  0  0  0  0  0  0
    3.6510   -2.1330    0.0020 H   0  0  0  0  0  0  0  0  0  0  0  0
    5.1080   -1.5860    0.8910 H   0  0  0  0  0  0  0  0  0  0  0  0
    5.1080   -1.5870   -0.8890 H   0  0  0  0  0  0  0  0  0  0  0  0
    8.6720   -1.7510    0.0010 H   0  0  0  0  0  0  0  0  0  0  0  0
  1  2  1  0  0  0  0
  1 26  1  0  0  0  0
  2  3  2  0  0  0  0
  2  4  1  0  0  0  0
  4  5  1  0  0  0  0
  4 27  1  0  0  0  0
  4 28  1  0  0  0  0
  5  6  1  0  0  0  0
  6  7  2  0  0  0  0
  6  8  1  0  0  0  0
  7 11  1  0  0  0  0
  7 29  1  0  0  0  0
  8  9  2  0  0  0  0
  8 30  1  0  0  0  0
  9 10  1  0  0  0  0
  9 31  1  0  0  0  0
 10 11  2  0  0  0  0
 10 17  1  0  0  0  0
 11 12  1  0  0  0  0
 12 13  2  0  0  0  0
 12 15  1  0  0  0  0
 13 14  1  0  0  0  0
 14 32  1  0  0  0  0
 15 16  2  0  0  0  0
 15 17  1  0  0  0  0
 16 20  1  0  0  0  0
 16 33  1  0  0  0  0
 17 18  2  0  0  0  0
 18 19  1  0  0  0  0
 18 34  1  0  0  0  0
 19 20  2  0  0  0  0
 19 35  1  0  0  0  0
 20 21  1  0  0  0  0
 21 22  1  0  0  0  0
 22 23  1  0  0  0  0
 22 36  1  0  0  0  0
 22 37  1  0  0  0  0
 23 24  1  0  0  0  0
 23 25  2  0  0  0  0
 24 38  1  0  0  0  0
M  END
> <OPENEYE_ISO_SMILES>
c1cc-2c(cc1OCC(=O)O)C(=NO)c3c2ccc(c3)OCC(=O)O

> <OPENEYE_INCHI>
InChI=1S/C17H13NO7/c19-15(20)7-24-9-1-3-11-12-4-2-10(25-8-16(21)22)6-14(12)17(18-23)13(11)5-9/h1-6,23H,7-8H2,(H,19,20)(H,21,22)

> <OPENEYE_INCHIKEY>
VOKATEXROYSXDW-UHFFFAOYSA-N

> <FORMULA>
C17H13NO7

$$$$
