@<TRIPOS>MOLECULE
7YG
 54 56 0 0 0
SMALL
GASTEIGER

@<TRIPOS>ATOM
      1 C          19.9010   14.1150   13.5840 C.ar    1  UNL1        0.0900
      2 C          18.8560   13.5120   14.2530 C.ar    1  UNL1        0.0557
      3 N          17.5760   13.6140   13.8740 N.ar    1  UNL1       -0.2363
      4 C          17.3420   14.3790   12.7930 C.ar    1  UNL1        0.1470
      5 C          18.3810   15.0230   12.1420 C.ar    1  UNL1        0.1656
      6 N          19.6660   14.8860   12.5070 N.ar    1  UNL1       -0.2371
      7 N          16.0310   14.5010   12.3370 N.pl3   1  UNL1       -0.3413
      8 C          21.2940   13.9150   13.9650 C.ar    1  UNL1        0.0020
      9 C          22.2610   14.8960   13.7700 C.ar    1  UNL1       -0.0507
     10 C          23.5660   14.7150   14.1850 C.ar    1  UNL1       -0.0347
     11 C          23.9240   13.5250   14.8020 C.ar    1  UNL1        0.1053
     12 C          22.9830   12.5280   14.9930 C.ar    1  UNL1       -0.0347
     13 C          21.6800   12.7380   14.5830 C.ar    1  UNL1       -0.0507
     14 S          25.6210   13.2370   15.3590 S.O2    1  UNL1        0.0584
     15 O          25.5510   12.3500   16.5070 O.2     1  UNL1       -0.1530
     16 O          26.2290   14.5470   15.4320 O.2     1  UNL1       -0.1530
     17 N          26.2220   12.2740   14.0820 N.3     1  UNL1       -0.1887
     18 C          26.6560   10.8980   14.3770 C.3     1  UNL1        0.0302
     19 C          25.6010    9.9730   13.7800 C.3     1  UNL1        0.0125
     20 N          25.1990    8.8360   14.6830 N.3     1  UNL1       -0.3071
     21 C          26.2320    8.1970   15.5480 C.3     1  UNL1       -0.0130
     22 C          23.8560    8.9440   15.3170 C.3     1  UNL1       -0.0130
     23 C          18.1400   15.8540   10.9390 C.2     1  UNL1        0.2700
     24 O          18.5490   15.5120    9.8390 O.2     1  UNL1       -0.2681
     25 N          17.4720   17.0280   11.2290 N.am    1  UNL1       -0.2789
     26 C          16.9710   17.9610   10.3110 C.ar    1  UNL1        0.0520
     27 C          17.8150   18.9730    9.9050 C.ar    1  UNL1       -0.0376
     28 C          17.3530   19.9350    9.0240 C.ar    1  UNL1       -0.0418
     29 C          16.0460   19.8280    8.5810 C.ar    1  UNL1        0.0277
     30 N          15.2100   18.8450    8.9510 N.ar    1  UNL1       -0.2614
     31 C          15.6770   17.9360    9.8130 C.ar    1  UNL1        0.0487
     32 H          19.0872   12.9144   15.1471 H       1  UNL1        0.0852
     33 H          15.8249   15.0809   11.5111 H       1  UNL1        0.1438
     34 H          15.2680   14.0113   12.8258 H       1  UNL1        0.1438
     35 H          21.9801   15.8369   13.2742 H       1  UNL1        0.0625
     36 H          24.3138   15.5063   14.0279 H       1  UNL1        0.0637
     37 H          23.2696   11.5775   15.4667 H       1  UNL1        0.0637
     38 H          20.9310   11.9503   14.7519 H       1  UNL1        0.0625
     39 H          25.4773   12.2115   13.3732 H       1  UNL1        0.1480
     40 H          27.6363   10.7023   13.9181 H       1  UNL1        0.0454
     41 H          26.7584   10.7372   15.4604 H       1  UNL1        0.0454
     42 H          24.7047   10.5701   13.5562 H       1  UNL1        0.0439
     43 H          26.0461    9.5222   12.8808 H       1  UNL1        0.0439
     44 H          25.9744    8.3564   16.6055 H       1  UNL1        0.0391
     45 H          26.2693    7.1178   15.3383 H       1  UNL1        0.0391
     46 H          27.2143    8.6455   15.3383 H       1  UNL1        0.0391
     47 H          23.9654    8.9352   16.4115 H       1  UNL1        0.0391
     48 H          23.3772    9.8835   15.0039 H       1  UNL1        0.0391
     49 H          23.2332    8.0930   15.0039 H       1  UNL1        0.0391
     50 H          17.3266   17.2403   12.2264 H       1  UNL1        0.1552
     51 H          18.8486   19.0154   10.2789 H       1  UNL1        0.0637
     52 H          18.0022   20.7566    8.6873 H       1  UNL1        0.0633
     53 H          15.6705   20.5929    7.8853 H       1  UNL1        0.0829
     54 H          15.0036   17.1310   10.1425 H       1  UNL1        0.0848
@<TRIPOS>BOND
     1     2     1   ar
     2     3     2   ar
     3     4     3   ar
     4     5     4   ar
     5     6     5   ar
     6     6     1   ar
     7     7     4    1
     8     8     1    1
     9     9     8   ar
    10    10     9   ar
    11    11    10   ar
    12    12    11   ar
    13    13     8   ar
    14    13    12   ar
    15    14    11    1
    16    15    14    2
    17    16    14    2
    18    17    14    1
    19    18    17    1
    20    19    18    1
    21    20    19    1
    22    21    20    1
    23    22    20    1
    24    23     5    1
    25    24    23    2
    26    25    23   am
    27    26    25    1
    28    27    26   ar
    29    28    27   ar
    30    29    28   ar
    31    30    29   ar
    32    31    30   ar
    33    31    26   ar
    34     2    32    1
    35     7    33    1
    36     7    34    1
    37     9    35    1
    38    10    36    1
    39    12    37    1
    40    13    38    1
    41    17    39    1
    42    18    40    1
    43    18    41    1
    44    19    42    1
    45    19    43    1
    46    21    44    1
    47    21    45    1
    48    21    46    1
    49    22    47    1
    50    22    48    1
    51    22    49    1
    52    25    50    1
    53    27    51    1
    54    28    52    1
    55    29    53    1
    56    31    54    1
