DT5
  -OEChem-12112021243D

 47 50  0     0  0  0  0  0  0999 V2000
    6.4010    1.0710   -0.9580 N   0  0  0  0  0  0  0  0  0  0  0  0
    5.8410   -0.4830   -0.8380 S   0  0  0  0  0  0  0  0  0  0  0  0
    6.7350   -1.1470    0.0450 O   0  0  0  0  0  0  0  0  0  0  0  0
    5.5440   -0.8900   -2.1670 O   0  0  0  0  0  0  0  0  0  0  0  0
    4.2940   -0.4220    0.0020 C   0  0  0  0  0  0  0  0  0  0  0  0
    3.1230   -0.2770   -0.7190 C   0  0  0  0  0  0  0  0  0  0  0  0
    4.2530   -0.5260    1.3800 C   0  0  0  0  0  0  0  0  0  0  0  0
    3.0420   -0.4740    2.0420 C   0  0  0  0  0  0  0  0  0  0  0  0
    1.9080   -0.2280   -0.0630 C   0  0  0  0  0  0  0  0  0  0  0  0
    1.8640   -0.3270    1.3210 C   0  0  0  0  0  0  0  0  0  0  0  0
    0.6360   -0.2790    1.9880 N   0  0  0  0  0  0  0  0  0  0  0  0
   -0.5170    0.0110    1.2890 C   0  0  0  0  0  0  0  0  0  0  0  0
   -0.6330    1.1830    0.5950 N   0  0  0  0  0  0  0  0  0  0  0  0
   -1.7760    1.4620   -0.1000 C   0  0  0  0  0  0  0  0  0  0  0  0
   -2.7970    0.5970   -0.1000 N   0  0  0  0  0  0  0  0  0  0  0  0
   -1.6060    2.6480   -0.6750 N   0  0  0  0  0  0  0  0  0  0  0  0
   -0.4020    3.1230   -0.3750 C   0  0  0  0  0  0  0  0  0  0  0  0
    0.2290    2.2680    0.3920 N   0  0  0  0  0  0  0  0  0  0  0  0
   -1.5660   -0.8680    1.2840 C   0  0  0  0  0  0  0  0  0  0  0  0
   -2.7220   -0.5440    0.5640 C   0  0  0  0  0  0  0  0  0  0  0  0
   -3.7700   -1.4030    0.5490 O   0  0  0  0  0  0  0  0  0  0  0  0
   -4.7850   -0.8010   -0.2580 C   0  0  0  0  0  0  0  0  0  0  0  0
   -5.6150   -1.8960   -0.9320 C   0  0  0  0  0  0  0  0  0  0  0  0
   -6.7020   -1.2520   -1.7950 C   0  0  0  0  0  0  0  0  0  0  0  0
   -7.6100   -0.3920   -0.9150 C   0  0  0  0  0  0  0  0  0  0  0  0
   -6.7800    0.7020   -0.2400 C   0  0  0  0  0  0  0  0  0  0  0  0
   -5.6930    0.0580    0.6230 C   0  0  0  0  0  0  0  0  0  0  0  0
    5.8800    1.8040   -0.5930 H   0  0  0  0  0  0  0  0  0  0  0  0
    7.2510    1.2490   -1.3910 H   0  0  0  0  0  0  0  0  0  0  0  0
    3.1580   -0.2000   -1.7960 H   0  0  0  0  0  0  0  0  0  0  0  0
    5.1690   -0.6400    1.9400 H   0  0  0  0  0  0  0  0  0  0  0  0
    3.0110   -0.5500    3.1190 H   0  0  0  0  0  0  0  0  0  0  0  0
    0.9940   -0.1140   -0.6270 H   0  0  0  0  0  0  0  0  0  0  0  0
    0.5950   -0.4490    2.9420 H   0  0  0  0  0  0  0  0  0  0  0  0
   -0.0050    4.0690   -0.7120 H   0  0  0  0  0  0  0  0  0  0  0  0
   -1.5020   -1.7990    1.8270 H   0  0  0  0  0  0  0  0  0  0  0  0
   -4.3200   -0.1760   -1.0200 H   0  0  0  0  0  0  0  0  0  0  0  0
   -4.9670   -2.5080   -1.5600 H   0  0  0  0  0  0  0  0  0  0  0  0
   -6.0790   -2.5210   -0.1700 H   0  0  0  0  0  0  0  0  0  0  0  0
   -6.2370   -0.6270   -2.5580 H   0  0  0  0  0  0  0  0  0  0  0  0
   -7.2930   -2.0310   -2.2760 H   0  0  0  0  0  0  0  0  0  0  0  0
   -8.3850    0.0660   -1.5300 H   0  0  0  0  0  0  0  0  0  0  0  0
   -8.0750   -1.0180   -0.1520 H   0  0  0  0  0  0  0  0  0  0  0  0
   -6.3160    1.3270   -1.0030 H   0  0  0  0  0  0  0  0  0  0  0  0
   -7.4270    1.3140    0.3870 H   0  0  0  0  0  0  0  0  0  0  0  0
   -6.1580   -0.5670    1.3850 H   0  0  0  0  0  0  0  0  0  0  0  0
   -5.1020    0.8380    1.1030 H   0  0  0  0  0  0  0  0  0  0  0  0
  1  2  1  0  0  0  0
  1 28  1  0  0  0  0
  1 29  1  0  0  0  0
  2  3  2  0  0  0  0
  2  4  2  0  0  0  0
  2  5  1  0  0  0  0
  5  6  2  0  0  0  0
  5  7  1  0  0  0  0
  6  9  1  0  0  0  0
  6 30  1  0  0  0  0
  7  8  2  0  0  0  0
  7 31  1  0  0  0  0
  8 10  1  0  0  0  0
  8 32  1  0  0  0  0
  9 10  2  0  0  0  0
  9 33  1  0  0  0  0
 10 11  1  0  0  0  0
 11 12  1  0  0  0  0
 11 34  1  0  0  0  0
 12 13  1  0  0  0  0
 12 19  2  0  0  0  0
 13 14  1  0  0  0  0
 13 18  1  0  0  0  0
 14 15  1  0  0  0  0
 14 16  2  0  0  0  0
 15 20  2  0  0  0  0
 16 17  1  0  0  0  0
 17 18  2  0  0  0  0
 17 35  1  0  0  0  0
 19 20  1  0  0  0  0
 19 36  1  0  0  0  0
 20 21  1  0  0  0  0
 21 22  1  0  0  0  0
 22 23  1  0  0  0  0
 22 27  1  0  0  0  0
 22 37  1  0  0  0  0
 23 24  1  0  0  0  0
 23 38  1  0  0  0  0
 23 39  1  0  0  0  0
 24 25  1  0  0  0  0
 24 40  1  0  0  0  0
 24 41  1  0  0  0  0
 25 26  1  0  0  0  0
 25 42  1  0  0  0  0
 25 43  1  0  0  0  0
 26 27  1  0  0  0  0
 26 44  1  0  0  0  0
 26 45  1  0  0  0  0
 27 46  1  0  0  0  0
 27 47  1  0  0  0  0
M  END
> <OPENEYE_ISO_SMILES>
c1cc(ccc1Nc2cc(nc3n2ncn3)OC4CCCCC4)S(=O)(=O)N

> <OPENEYE_INCHI>
InChI=1S/C17H20N6O3S/c18-27(24,25)14-8-6-12(7-9-14)21-15-10-16(22-17-19-11-20-23(15)17)26-13-4-2-1-3-5-13/h6-11,13,21H,1-5H2,(H2,18,24,25)

> <OPENEYE_INCHIKEY>
RPJIMTALCNCQLV-UHFFFAOYSA-N

> <FORMULA>
C17H20N6O3S

$$$$
