@<TRIPOS>MOLECULE
DT5
 47 50 0 0 0
SMALL
GASTEIGER

@<TRIPOS>ATOM
      1 N           6.4010    1.0710   -0.9580 N.3     1  LIG1       -0.2035
      2 S           5.8410   -0.4830   -0.8380 S.O2    1  LIG1        0.0559
      3 O           6.7350   -1.1470    0.0450 O.2     1  LIG1       -0.1533
      4 O           5.5440   -0.8900   -2.1670 O.2     1  LIG1       -0.1533
      5 C           4.2940   -0.4220    0.0020 C.ar    1  LIG1        0.1051
      6 C           3.1230   -0.2770   -0.7190 C.ar    1  LIG1       -0.0336
      7 C           4.2530   -0.5260    1.3800 C.ar    1  LIG1       -0.0336
      8 C           3.0420   -0.4740    2.0420 C.ar    1  LIG1       -0.0387
      9 C           1.9080   -0.2280   -0.0630 C.ar    1  LIG1       -0.0387
     10 C           1.8640   -0.3270    1.3210 C.ar    1  LIG1        0.0325
     11 N           0.6360   -0.2790    1.9880 N.pl3   1  LIG1       -0.2992
     12 C          -0.5170    0.0110    1.2890 C.ar    1  LIG1        0.1333
     13 N          -0.6330    1.1830    0.5950 N.ar    1  LIG1       -0.1821
     14 C          -1.7760    1.4620   -0.1000 C.ar    1  LIG1        0.2576
     15 N          -2.7970    0.5970   -0.1000 N.ar    1  LIG1       -0.1754
     16 N          -1.6060    2.6480   -0.6750 N.ar    1  LIG1       -0.1973
     17 C          -0.4020    3.1230   -0.3750 C.ar    1  LIG1        0.1406
     18 N           0.2290    2.2680    0.3920 N.ar    1  LIG1       -0.1506
     19 C          -1.5660   -0.8680    1.2840 C.ar    1  LIG1        0.0402
     20 C          -2.7220   -0.5440    0.5640 C.ar    1  LIG1        0.2214
     21 O          -3.7700   -1.4030    0.5490 O.3     1  LIG1       -0.4729
     22 C          -4.7850   -0.8010   -0.2580 C.3     1  LIG1        0.1018
     23 C          -5.6150   -1.8960   -0.9320 C.3     1  LIG1       -0.0157
     24 C          -6.7020   -1.2520   -1.7950 C.3     1  LIG1       -0.0497
     25 C          -7.6100   -0.3920   -0.9150 C.3     1  LIG1       -0.0528
     26 C          -6.7800    0.7020   -0.2400 C.3     1  LIG1       -0.0497
     27 C          -5.6930    0.0580    0.6230 C.3     1  LIG1       -0.0157
     28 H           5.8800    1.8040   -0.5930 H       1  LIG1        0.1442
     29 H           7.2510    1.2490   -1.3910 H       1  LIG1        0.1442
     30 H           3.1580   -0.2000   -1.7960 H       1  LIG1        0.0638
     31 H           5.1690   -0.6400    1.9400 H       1  LIG1        0.0638
     32 H           3.0110   -0.5500    3.1190 H       1  LIG1        0.0637
     33 H           0.9940   -0.1140   -0.6270 H       1  LIG1        0.0637
     34 H           0.5950   -0.4490    2.9420 H       1  LIG1        0.1536
     35 H          -0.0050    4.0690   -0.7120 H       1  LIG1        0.1066
     36 H          -1.5020   -1.7990    1.8270 H       1  LIG1        0.0705
     37 H          -4.3200   -0.1760   -1.0200 H       1  LIG1        0.0733
     38 H          -4.9670   -2.5080   -1.5600 H       1  LIG1        0.0301
     39 H          -6.0790   -2.5210   -0.1700 H       1  LIG1        0.0301
     40 H          -6.2370   -0.6270   -2.5580 H       1  LIG1        0.0266
     41 H          -7.2930   -2.0310   -2.2760 H       1  LIG1        0.0266
     42 H          -8.3850    0.0660   -1.5300 H       1  LIG1        0.0265
     43 H          -8.0750   -1.0180   -0.1520 H       1  LIG1        0.0265
     44 H          -6.3160    1.3270   -1.0030 H       1  LIG1        0.0266
     45 H          -7.4270    1.3140    0.3870 H       1  LIG1        0.0266
     46 H          -6.1580   -0.5670    1.3850 H       1  LIG1        0.0301
     47 H          -5.1020    0.8380    1.1030 H       1  LIG1        0.0301
@<TRIPOS>BOND
     1     1     2    1
     2     1    28    1
     3     1    29    1
     4     2     3    2
     5     2     4    2
     6     2     5    1
     7     5     6   ar
     8     5     7   ar
     9     6     9   ar
    10     6    30    1
    11     7     8   ar
    12     7    31    1
    13     8    10   ar
    14     8    32    1
    15     9    10   ar
    16     9    33    1
    17    10    11    1
    18    11    12    1
    19    11    34    1
    20    12    13   ar
    21    12    19   ar
    22    13    14   ar
    23    13    18   ar
    24    14    15   ar
    25    14    16   ar
    26    15    20   ar
    27    16    17   ar
    28    17    18   ar
    29    17    35    1
    30    19    20   ar
    31    19    36    1
    32    20    21    1
    33    21    22    1
    34    22    23    1
    35    22    27    1
    36    22    37    1
    37    23    24    1
    38    23    38    1
    39    23    39    1
    40    24    25    1
    41    24    40    1
    42    24    41    1
    43    25    26    1
    44    25    42    1
    45    25    43    1
    46    26    27    1
    47    26    44    1
    48    26    45    1
    49    27    46    1
    50    27    47    1
