DT5
  Mrv15b2303062314012D          

 27 30  0  0  0  0            999 V2000
   -3.4891   -2.6096    0.0000 N   0  0  0  0  0  0  0  0  0  0  0  0
   -2.7746   -2.1971    0.0000 S   0  0  0  0  0  0  0  0  0  0  0  0
   -2.3621   -2.9116    0.0000 O   0  0  0  0  0  0  0  0  0  0  0  0
   -3.1871   -1.4827    0.0000 O   0  0  0  0  0  0  0  0  0  0  0  0
   -2.0601   -1.7846    0.0000 C   0  0  0  0  0  0  0  0  0  0  0  0
   -2.0601   -0.9596    0.0000 C   0  0  0  0  0  0  0  0  0  0  0  0
   -1.3457   -2.1971    0.0000 C   0  0  0  0  0  0  0  0  0  0  0  0
   -0.6312   -1.7846    0.0000 C   0  0  0  0  0  0  0  0  0  0  0  0
   -1.3457   -0.5471    0.0000 C   0  0  0  0  0  0  0  0  0  0  0  0
   -0.6312   -0.9596    0.0000 C   0  0  0  0  0  0  0  0  0  0  0  0
    0.0833   -0.5471    0.0000 N   0  0  0  0  0  0  0  0  0  0  0  0
    0.0833    0.2779    0.0000 C   0  0  0  0  0  0  0  0  0  0  0  0
   -0.6312    0.6904    0.0000 N   0  0  0  0  0  0  0  0  0  0  0  0
   -0.6312    1.5154    0.0000 C   0  0  0  0  0  0  0  0  0  0  0  0
    0.0833    1.9279    0.0000 N   0  0  0  0  0  0  0  0  0  0  0  0
   -1.4158    1.7703    0.0000 N   0  0  0  0  0  0  0  0  0  0  0  0
   -1.9007    1.1029    0.0000 C   0  0  0  0  0  0  0  0  0  0  0  0
   -1.4158    0.4354    0.0000 N   0  0  0  0  0  0  0  0  0  0  0  0
    0.7977    0.6904    0.0000 C   0  0  0  0  0  0  0  0  0  0  0  0
    0.7977    1.5154    0.0000 C   0  0  0  0  0  0  0  0  0  0  0  0
    1.5122    1.9279    0.0000 O   0  0  0  0  0  0  0  0  0  0  0  0
    2.2267    1.5154    0.0000 C   0  0  0  0  0  0  0  0  0  0  0  0
    2.9412    1.9279    0.0000 C   0  0  0  0  0  0  0  0  0  0  0  0
    3.6556    1.5154    0.0000 C   0  0  0  0  0  0  0  0  0  0  0  0
    3.6556    0.6904    0.0000 C   0  0  0  0  0  0  0  0  0  0  0  0
    2.9412    0.2779    0.0000 C   0  0  0  0  0  0  0  0  0  0  0  0
    2.2267    0.6904    0.0000 C   0  0  0  0  0  0  0  0  0  0  0  0
  1  2  1  0  0  0  0
  2  3  2  0  0  0  0
  2  4  2  0  0  0  0
  2  5  1  0  0  0  0
  5  6  4  0  0  0  0
  5  7  4  0  0  0  0
  6  9  4  0  0  0  0
  7  8  4  0  0  0  0
  8 10  4  0  0  0  0
  9 10  4  0  0  0  0
 10 11  1  0  0  0  0
 11 12  1  0  0  0  0
 12 13  4  0  0  0  0
 12 19  4  0  0  0  0
 13 14  4  0  0  0  0
 13 18  4  0  0  0  0
 14 15  4  0  0  0  0
 14 16  4  0  0  0  0
 15 20  4  0  0  0  0
 16 17  4  0  0  0  0
 17 18  4  0  0  0  0
 19 20  4  0  0  0  0
 20 21  1  0  0  0  0
 21 22  1  0  0  0  0
 22 23  1  0  0  0  0
 22 27  1  0  0  0  0
 23 24  1  0  0  0  0
 24 25  1  0  0  0  0
 25 26  1  0  0  0  0
 26 27  1  0  0  0  0
M  END
