@<TRIPOS>MOLECULE
R94
 75 79 0 0 0
SMALL
GASTEIGER

@<TRIPOS>ATOM
      1 C           6.3280   40.4260   17.8710 C.ar    1  UNL1        0.0367
      2 C           6.5980   39.6210   18.9900 C.ar    1  UNL1       -0.0490
      3 C           7.8800   39.1310   19.1980 C.ar    1  UNL1       -0.0502
      4 C           8.9080   39.4410   18.2930 C.ar    1  UNL1        0.0224
      5 C           8.6420   40.2460   17.1630 C.ar    1  UNL1       -0.0502
      6 C           7.3540   40.7340   16.9560 C.ar    1  UNL1       -0.0490
      7 C           4.9790   40.9200   17.6340 C.2     1  UNL1        0.2443
      8 N           3.9380   39.9990   17.6450 N.am    1  UNL1       -0.3067
      9 O           4.7270   42.1260   17.5130 O.2     1  UNL1       -0.2702
     10 C           2.5190   40.4530   17.7670 C.3     1  UNL1        0.0430
     11 C           1.9350   40.8550   16.3830 C.3     1  UNL1        0.0542
     12 C           0.8100   39.9820   15.8030 C.3     1  UNL1        0.0161
     13 N           1.2280   38.5270   15.7580 N.3     1  UNL1       -0.3142
     14 C           0.8260   37.7230   16.9870 C.3     1  UNL1       -0.0040
     15 C           1.8350   37.9470   18.1070 C.3     1  UNL1       -0.0387
     16 C           1.7800   39.3920   18.6110 C.3     1  UNL1       -0.0316
     17 N           1.4250   42.2450   16.4110 N.am    1  UNL1       -0.3055
     18 C           1.7320   43.1130   15.3720 C.2     1  UNL1        0.2445
     19 O           2.6630   42.8080   14.6120 O.2     1  UNL1       -0.2702
     20 C           1.0400   44.3920   15.2160 C.ar    1  UNL1        0.0396
     21 C           1.7040   45.5690   15.6070 C.ar    1  UNL1       -0.0315
     22 C           1.0530   46.7920   15.4620 C.ar    1  UNL1        0.0283
     23 N          -0.2060   46.8730   15.0170 N.ar    1  UNL1       -0.2632
     24 C          -0.8470   45.7630   14.6480 C.ar    1  UNL1        0.0283
     25 C          -0.2670   44.5010   14.7470 C.ar    1  UNL1       -0.0315
     26 C          10.2320   38.8610   18.5000 C.2     1  UNL1        0.1967
     27 O          10.2830   37.6370   18.3510 O.2     1  UNL1       -0.2865
     28 C          11.5020   39.5900   18.6670 C.ar    1  UNL1        0.0653
     29 C          12.7490   38.9830   18.8810 C.ar    1  UNL1        0.1278
     30 C          13.9120   39.7770   19.0000 C.ar    1  UNL1       -0.0177
     31 O          12.8690   37.6110   18.9610 O.3     1  UNL1       -0.5061
     32 C          13.8180   41.1640   18.9240 C.ar    1  UNL1       -0.0372
     33 C          12.5810   41.8090   18.7050 C.ar    1  UNL1        0.0306
     34 C          11.4320   41.0060   18.5900 C.ar    1  UNL1       -0.0263
     35 N          12.5080   43.1860   18.6290 N.pl3   1  UNL1       -0.3299
     36 C          13.6010   43.9690   19.2420 C.3     1  UNL1        0.0122
     37 C          13.1200   45.3810   19.6040 C.3     1  UNL1       -0.0372
     38 C          12.5000   46.0550   18.3750 C.3     1  UNL1       -0.0502
     39 C          11.3390   45.2050   17.8350 C.3     1  UNL1       -0.0372
     40 C          11.8280   43.7980   17.4680 C.3     1  UNL1        0.0122
     41 H           5.7942   39.3791   19.7009 H       1  UNL1        0.0625
     42 H           8.0910   38.4989   20.0732 H       1  UNL1        0.0625
     43 H           9.4462   40.4857   16.4518 H       1  UNL1        0.0625
     44 H           7.1378   41.3601   16.0778 H       1  UNL1        0.0625
     45 H           4.1465   38.9932   17.5683 H       1  UNL1        0.1494
     46 H           2.3962   41.3984   18.3157 H       1  UNL1        0.0517
     47 H           2.8041   40.7156   15.7233 H       1  UNL1        0.0529
     48 H          -0.0852   40.0808   16.4345 H       1  UNL1        0.0443
     49 H           0.5945   40.3190   14.7783 H       1  UNL1        0.0443
     50 H           0.7941   38.0918   14.9314 H       1  UNL1        0.1220
     51 H          -0.1702   38.0455   17.3239 H       1  UNL1        0.0424
     52 H           0.8035   36.6540   16.7287 H       1  UNL1        0.0424
     53 H           1.6056   37.2661   18.9399 H       1  UNL1        0.0278
     54 H           2.8439   37.7493   17.7159 H       1  UNL1        0.0278
     55 H           0.7213   39.6863   18.6625 H       1  UNL1        0.0284
     56 H           2.3029   39.3791   19.5787 H       1  UNL1        0.0284
     57 H           0.8445   42.5667   17.1987 H       1  UNL1        0.1494
     58 H           2.7221   45.5242   16.0211 H       1  UNL1        0.0640
     59 H           1.5892   47.7170   15.7206 H       1  UNL1        0.0830
     60 H          -1.8696   45.8475   14.2516 H       1  UNL1        0.0830
     61 H          -0.8330   43.6028   14.4589 H       1  UNL1        0.0640
     62 H          14.8911   39.2994   19.1526 H       1  UNL1        0.0655
     63 H          13.7567   37.1997   19.1124 H       1  UNL1        0.2922
     64 H          14.7281   41.7713   19.0371 H       1  UNL1        0.0637
     65 H          10.4547   41.4870   18.4366 H       1  UNL1        0.0644
     66 H          13.9427   43.4589   20.1547 H       1  UNL1        0.0464
     67 H          14.4259   44.0509   18.5189 H       1  UNL1        0.0464
     68 H          12.3663   45.3155   20.4025 H       1  UNL1        0.0280
     69 H          13.9778   45.9773   19.9485 H       1  UNL1        0.0280
     70 H          12.1226   47.0490   18.6570 H       1  UNL1        0.0266
     71 H          13.2676   46.1536   17.5933 H       1  UNL1        0.0266
     72 H          10.5583   45.1272   18.6060 H       1  UNL1        0.0280
     73 H          10.9346   45.6875   16.9329 H       1  UNL1        0.0280
     74 H          12.5321   43.8642   16.6255 H       1  UNL1        0.0464
     75 H          10.9663   43.1767   17.1826 H       1  UNL1        0.0464
@<TRIPOS>BOND
     1     2     1   ar
     2     3     2   ar
     3     4     3   ar
     4     5     4   ar
     5     6     5   ar
     6     6     1   ar
     7     7     1    1
     8     8     7   am
     9     9     7    2
    10    10     8    1
    11    11    10    1
    12    12    11    1
    13    13    12    1
    14    14    13    1
    15    15    14    1
    16    16    15    1
    17    16    10    1
    18    17    11    1
    19    18    17   am
    20    19    18    2
    21    20    18    1
    22    21    20   ar
    23    22    21   ar
    24    23    22   ar
    25    24    23   ar
    26    25    24   ar
    27    25    20   ar
    28    26     4    1
    29    27    26    2
    30    28    26    1
    31    29    28   ar
    32    30    29   ar
    33    31    29    1
    34    32    30   ar
    35    33    32   ar
    36    34    33   ar
    37    34    28   ar
    38    35    33    1
    39    36    35    1
    40    37    36    1
    41    38    37    1
    42    39    38    1
    43    40    35    1
    44    40    39    1
    45     2    41    1
    46     3    42    1
    47     5    43    1
    48     6    44    1
    49     8    45    1
    50    10    46    1
    51    11    47    1
    52    12    48    1
    53    12    49    1
    54    13    50    1
    55    14    51    1
    56    14    52    1
    57    15    53    1
    58    15    54    1
    59    16    55    1
    60    16    56    1
    61    17    57    1
    62    21    58    1
    63    22    59    1
    64    24    60    1
    65    25    61    1
    66    30    62    1
    67    31    63    1
    68    32    64    1
    69    34    65    1
    70    36    66    1
    71    36    67    1
    72    37    68    1
    73    37    69    1
    74    38    70    1
    75    38    71    1
    76    39    72    1
    77    39    73    1
    78    40    74    1
    79    40    75    1
