DF1
  -OEChem-08122214443D

 46 49  0     1  0  0  0  0  0999 V2000
    1.7830    1.1550   -0.9160 C   0  0  0  0  0  0  0  0  0  0  0  0
    3.1450    1.2270   -0.7090 C   0  0  0  0  0  0  0  0  0  0  0  0
    3.7890    0.2510    0.0290 C   0  0  0  0  0  0  0  0  0  0  0  0
    3.0720   -0.8030    0.5650 C   0  0  0  0  0  0  0  0  0  0  0  0
    1.7090   -0.8840    0.3710 C   0  0  0  0  0  0  0  0  0  0  0  0
    1.0550    0.0940   -0.3770 C   0  0  0  0  0  0  0  0  0  0  0  0
   -0.4060    0.0100   -0.5940 C   0  0  0  0  0  0  0  0  0  0  0  0
   -1.4500    0.0080    0.4350 C   0  0  0  0  0  0  0  0  0  0  0  0
   -1.4540    0.0620    1.8370 C   0  0  0  0  0  0  0  0  0  0  0  0
   -0.2700    0.1530    2.5460 N   0  0  0  0  0  0  0  0  0  0  0  0
   -0.2960    0.2140    4.0100 C   0  0  0  0  0  0  0  0  0  0  0  0
    1.1350    0.3090    4.5420 C   0  0  1  0  0  0  0  0  0  0  0  0
    1.1080    0.3740    6.0700 C   0  0  0  0  0  0  0  0  0  0  0  0
    1.8740   -0.8400    4.1260 O   0  0  0  0  0  0  0  0  0  0  0  0
   -2.6250    0.0300    2.4670 N   0  0  0  0  0  0  0  0  0  0  0  0
   -3.7570   -0.0550    1.7930 C   0  0  0  0  0  0  0  0  0  0  0  0
   -3.8000   -0.1140    0.4790 N   0  0  0  0  0  0  0  0  0  0  0  0
   -2.6790   -0.0880   -0.2410 C   0  0  0  0  0  0  0  0  0  0  0  0
   -2.4160   -0.1330   -1.5840 N   0  0  0  0  0  0  0  0  0  0  0  0
   -1.0590   -0.0740   -1.8070 C   0  0  0  0  0  0  0  0  0  0  0  0
   -0.4070   -0.0990   -3.1310 C   0  0  0  0  0  0  0  0  0  0  0  0
   -0.6910    0.8930   -4.0710 C   0  0  0  0  0  0  0  0  0  0  0  0
   -0.0780    0.8640   -5.3060 C   0  0  0  0  0  0  0  0  0  0  0  0
    0.8160   -0.1450   -5.6150 C   0  0  0  0  0  0  0  0  0  0  0  0
    1.1020   -1.1320   -4.6880 C   0  0  0  0  0  0  0  0  0  0  0  0
    0.5000   -1.1120   -3.4470 C   0  0  0  0  0  0  0  0  0  0  0  0
    1.2820    1.9180   -1.4930 H   0  0  0  0  0  0  0  0  0  0  0  0
    3.7110    2.0480   -1.1260 H   0  0  0  0  0  0  0  0  0  0  0  0
    4.8560    0.3120    0.1880 H   0  0  0  0  0  0  0  0  0  0  0  0
    3.5810   -1.5620    1.1410 H   0  0  0  0  0  0  0  0  0  0  0  0
    1.1500   -1.7080    0.7900 H   0  0  0  0  0  0  0  0  0  0  0  0
    0.5770    0.1750    2.0750 H   0  0  0  0  0  0  0  0  0  0  0  0
   -0.7710   -0.6840    4.4030 H   0  0  0  0  0  0  0  0  0  0  0  0
   -0.8600    1.0910    4.3270 H   0  0  0  0  0  0  0  0  0  0  0  0
    1.6090    1.2080    4.1490 H   0  0  0  0  0  0  0  0  0  0  0  0
    2.1270    0.4410    6.4490 H   0  0  0  0  0  0  0  0  0  0  0  0
    0.5430    1.2510    6.3870 H   0  0  0  0  0  0  0  0  0  0  0  0
    0.6330   -0.5250    6.4630 H   0  0  0  0  0  0  0  0  0  0  0  0
    1.4220   -1.6110    4.4950 H   0  0  0  0  0  0  0  0  0  0  0  0
   -4.6870   -0.0790    2.3420 H   0  0  0  0  0  0  0  0  0  0  0  0
   -3.0900   -0.1970   -2.2780 H   0  0  0  0  0  0  0  0  0  0  0  0
   -1.3890    1.6820   -3.8320 H   0  0  0  0  0  0  0  0  0  0  0  0
   -0.2960    1.6310   -6.0350 H   0  0  0  0  0  0  0  0  0  0  0  0
    1.2930   -0.1630   -6.5840 H   0  0  0  0  0  0  0  0  0  0  0  0
    1.8010   -1.9170   -4.9360 H   0  0  0  0  0  0  0  0  0  0  0  0
    0.7240   -1.8830   -2.7250 H   0  0  0  0  0  0  0  0  0  0  0  0
  1  2  2  0  0  0  0
  1  6  1  0  0  0  0
  1 27  1  0  0  0  0
  2  3  1  0  0  0  0
  2 28  1  0  0  0  0
  3  4  2  0  0  0  0
  3 29  1  0  0  0  0
  4  5  1  0  0  0  0
  4 30  1  0  0  0  0
  5  6  2  0  0  0  0
  5 31  1  0  0  0  0
  6  7  1  0  0  0  0
  7  8  1  0  0  0  0
  7 20  2  0  0  0  0
  8  9  2  0  0  0  0
  8 18  1  0  0  0  0
  9 10  1  0  0  0  0
  9 15  1  0  0  0  0
 10 11  1  0  0  0  0
 10 32  1  0  0  0  0
 11 12  1  0  0  0  0
 11 33  1  0  0  0  0
 11 34  1  0  0  0  0
 12 13  1  0  0  0  0
 12 14  1  0  0  0  0
 12 35  1  0  0  0  0
 13 36  1  0  0  0  0
 13 37  1  0  0  0  0
 13 38  1  0  0  0  0
 14 39  1  0  0  0  0
 15 16  2  0  0  0  0
 16 17  1  0  0  0  0
 16 40  1  0  0  0  0
 17 18  2  0  0  0  0
 18 19  1  0  0  0  0
 19 20  1  0  0  0  0
 19 41  1  0  0  0  0
 20 21  1  0  0  0  0
 21 22  2  0  0  0  0
 21 26  1  0  0  0  0
 22 23  1  0  0  0  0
 22 42  1  0  0  0  0
 23 24  2  0  0  0  0
 23 43  1  0  0  0  0
 24 25  1  0  0  0  0
 24 44  1  0  0  0  0
 25 26  2  0  0  0  0
 25 45  1  0  0  0  0
 26 46  1  0  0  0  0
M  END
> <OPENEYE_ISO_SMILES>
C[C@H](CNc1c2c(c([nH]c2ncn1)c3ccccc3)c4ccccc4)O

> <OPENEYE_INCHI>
InChI=1S/C21H20N4O/c1-14(26)12-22-20-18-17(15-8-4-2-5-9-15)19(16-10-6-3-7-11-16)25-21(18)24-13-23-20/h2-11,13-14,26H,12H2,1H3,(H2,22,23,24,25)/t14-/m1/s1

> <OPENEYE_INCHIKEY>
VBASHTSSQNDDAS-CQSZACIVSA-N

> <FORMULA>
C21H20N4O

$$$$
