DF1
  Mrv15b2303062313502D          

 26 29  0  0  0  0            999 V2000
   -1.1833    0.6031    0.0000 C   0  0  0  0  0  0  0  0  0  0  0  0
   -1.4382    1.3878    0.0000 C   0  0  0  0  0  0  0  0  0  0  0  0
   -0.8862    2.0009    0.0000 C   0  0  0  0  0  0  0  0  0  0  0  0
   -0.0792    1.8293    0.0000 C   0  0  0  0  0  0  0  0  0  0  0  0
    0.1758    1.0447    0.0000 C   0  0  0  0  0  0  0  0  0  0  0  0
   -0.3763    0.4316    0.0000 C   0  0  0  0  0  0  0  0  0  0  0  0
   -0.1213   -0.3530    0.0000 C   0  0  0  0  0  0  0  0  0  0  0  0
    0.6633   -0.6080    0.0000 C   0  0  0  0  0  0  0  0  0  0  0  0
    1.3778   -0.1955    0.0000 C   0  0  0  0  0  0  0  0  0  0  0  0
    1.3778    0.6295    0.0000 N   0  0  0  0  0  0  0  0  0  0  0  0
    2.0922    1.0420    0.0000 C   0  0  0  0  0  0  0  0  0  0  0  0
    2.0922    1.8670    0.0000 C   0  0  1  0  0  0  0  0  0  0  0  0
    2.8067    2.2795    0.0000 C   0  0  0  0  0  0  0  0  0  0  0  0
    1.3778    2.2795    0.0000 O   0  0  0  0  0  0  0  0  0  0  0  0
    2.0922   -0.6080    0.0000 N   0  0  0  0  0  0  0  0  0  0  0  0
    2.0922   -1.4330    0.0000 C   0  0  0  0  0  0  0  0  0  0  0  0
    1.3778   -1.8455    0.0000 N   0  0  0  0  0  0  0  0  0  0  0  0
    0.6633   -1.4330    0.0000 C   0  0  0  0  0  0  0  0  0  0  0  0
   -0.1213   -1.6879    0.0000 N   0  0  0  0  0  0  0  0  0  0  0  0
   -0.6063   -1.0205    0.0000 C   0  0  0  0  0  0  0  0  0  0  0  0
   -1.4313   -1.0205    0.0000 C   0  0  0  0  0  0  0  0  0  0  0  0
   -1.8438   -1.7349    0.0000 C   0  0  0  0  0  0  0  0  0  0  0  0
   -2.6688   -1.7349    0.0000 C   0  0  0  0  0  0  0  0  0  0  0  0
   -3.0813   -1.0205    0.0000 C   0  0  0  0  0  0  0  0  0  0  0  0
   -2.6688   -0.3060    0.0000 C   0  0  0  0  0  0  0  0  0  0  0  0
   -1.8438   -0.3060    0.0000 C   0  0  0  0  0  0  0  0  0  0  0  0
  1  2  4  0  0  0  0
  1  6  4  0  0  0  0
  2  3  4  0  0  0  0
  3  4  4  0  0  0  0
  4  5  4  0  0  0  0
  5  6  4  0  0  0  0
  6  7  1  0  0  0  0
  7  8  4  0  0  0  0
  7 20  4  0  0  0  0
  8  9  4  0  0  0  0
  8 18  4  0  0  0  0
  9 10  1  0  0  0  0
  9 15  4  0  0  0  0
 10 11  1  0  0  0  0
 11 12  1  0  0  0  0
 12 13  1  0  0  0  0
 12 14  1  6  0  0  0
 15 16  4  0  0  0  0
 16 17  4  0  0  0  0
 17 18  4  0  0  0  0
 18 19  4  0  0  0  0
 19 20  4  0  0  0  0
 20 21  1  0  0  0  0
 21 22  4  0  0  0  0
 21 26  4  0  0  0  0
 22 23  4  0  0  0  0
 23 24  4  0  0  0  0
 24 25  4  0  0  0  0
 25 26  4  0  0  0  0
M  STY  1   1 DAT
M  SAL   1  1  19
M  SDT   1 MRV_IMPLICIT_H                                        
M  SDD   1     0.0000    0.0000    DR    ALL  0       0  
M  SED   1 IMPL_H1
M  END
