@<TRIPOS>MOLECULE
DF1
 46 49 0 0 0
SMALL
GASTEIGER

@<TRIPOS>ATOM
      1 C           1.7830    1.1550   -0.9160 C.ar    1  LIG1       -0.0539
      2 C           3.1450    1.2270   -0.7090 C.ar    1  LIG1       -0.0612
      3 C           3.7890    0.2510    0.0290 C.ar    1  LIG1       -0.0617
      4 C           3.0720   -0.8030    0.5650 C.ar    1  LIG1       -0.0612
      5 C           1.7090   -0.8840    0.3710 C.ar    1  LIG1       -0.0539
      6 C           1.0550    0.0940   -0.3770 C.ar    1  LIG1       -0.0151
      7 C          -0.4060    0.0100   -0.5940 C.ar    1  LIG1        0.0200
      8 C          -1.4500    0.0080    0.4350 C.ar    1  LIG1        0.0666
      9 C          -1.4540    0.0620    1.8370 C.ar    1  LIG1        0.1319
     10 N          -0.2700    0.1530    2.5460 N.pl3   1  LIG1       -0.3260
     11 C          -0.2960    0.2140    4.0100 C.3     1  LIG1        0.0362
     12 C           1.1350    0.3090    4.5420 C.3     1  LIG1        0.0678
     13 C           1.1080    0.3740    6.0700 C.3     1  LIG1       -0.0375
     14 O           1.8740   -0.8400    4.1260 O.3     1  LIG1       -0.3905
     15 N          -2.6250    0.0300    2.4670 N.ar    1  LIG1       -0.2202
     16 C          -3.7570   -0.0550    1.7930 C.ar    1  LIG1        0.1204
     17 N          -3.8000   -0.1140    0.4790 N.ar    1  LIG1       -0.2178
     18 C          -2.6790   -0.0880   -0.2410 C.ar    1  LIG1        0.1442
     19 N          -2.4160   -0.1330   -1.5840 N.ar    1  LIG1       -0.3384
     20 C          -1.0590   -0.0740   -1.8070 C.ar    1  LIG1        0.0565
     21 C          -0.4070   -0.0990   -3.1310 C.ar    1  LIG1       -0.0010
     22 C          -0.6910    0.8930   -4.0710 C.ar    1  LIG1       -0.0526
     23 C          -0.0780    0.8640   -5.3060 C.ar    1  LIG1       -0.0611
     24 C           0.8160   -0.1450   -5.6150 C.ar    1  LIG1       -0.0617
     25 C           1.1020   -1.1320   -4.6880 C.ar    1  LIG1       -0.0611
     26 C           0.5000   -1.1120   -3.4470 C.ar    1  LIG1       -0.0526
     27 H           1.2820    1.9180   -1.4930 H       1  LIG1        0.0624
     28 H           3.7110    2.0480   -1.1260 H       1  LIG1        0.0618
     29 H           4.8560    0.3120    0.1880 H       1  LIG1        0.0618
     30 H           3.5810   -1.5620    1.1410 H       1  LIG1        0.0618
     31 H           1.1500   -1.7080    0.7900 H       1  LIG1        0.0624
     32 H           0.5770    0.1750    2.0750 H       1  LIG1        0.1476
     33 H          -0.7710   -0.6840    4.4030 H       1  LIG1        0.0487
     34 H          -0.8600    1.0910    4.3270 H       1  LIG1        0.0487
     35 H           1.6090    1.2080    4.1490 H       1  LIG1        0.0606
     36 H           2.1270    0.4410    6.4490 H       1  LIG1        0.0255
     37 H           0.5430    1.2510    6.3870 H       1  LIG1        0.0255
     38 H           0.6330   -0.5250    6.4630 H       1  LIG1        0.0255
     39 H           1.4220   -1.6110    4.4950 H       1  LIG1        0.2098
     40 H          -4.6870   -0.0790    2.3420 H       1  LIG1        0.1048
     41 H          -3.0900   -0.1970   -2.2780 H       1  LIG1        0.1674
     42 H          -1.3890    1.6820   -3.8320 H       1  LIG1        0.0624
     43 H          -0.2960    1.6310   -6.0350 H       1  LIG1        0.0618
     44 H           1.2930   -0.1630   -6.5840 H       1  LIG1        0.0618
     45 H           1.8010   -1.9170   -4.9360 H       1  LIG1        0.0618
     46 H           0.7240   -1.8830   -2.7250 H       1  LIG1        0.0624
@<TRIPOS>BOND
     1     1     2   ar
     2     1     6   ar
     3     1    27    1
     4     2     3   ar
     5     2    28    1
     6     3     4   ar
     7     3    29    1
     8     4     5   ar
     9     4    30    1
    10     5     6   ar
    11     5    31    1
    12     6     7    1
    13     7     8   ar
    14     7    20   ar
    15     8     9   ar
    16     8    18   ar
    17     9    10    1
    18     9    15   ar
    19    10    11    1
    20    10    32    1
    21    11    12    1
    22    11    33    1
    23    11    34    1
    24    12    13    1
    25    12    14    1
    26    12    35    1
    27    13    36    1
    28    13    37    1
    29    13    38    1
    30    14    39    1
    31    15    16   ar
    32    16    17   ar
    33    16    40    1
    34    17    18   ar
    35    18    19   ar
    36    19    20   ar
    37    19    41    1
    38    20    21    1
    39    21    22   ar
    40    21    26   ar
    41    22    23   ar
    42    22    42    1
    43    23    24   ar
    44    23    43    1
    45    24    25   ar
    46    24    44    1
    47    25    26   ar
    48    25    45    1
    49    26    46    1
