@<TRIPOS>MOLECULE
BTO
 31 32 0 0 0
SMALL
GASTEIGER

@<TRIPOS>ATOM
      1 C          -5.1390   -0.6990    5.7650 C.ar    1  LIG1       -0.0547
      2 C          -5.3310   -2.0800    5.8010 C.ar    1  LIG1        0.0156
      3 C          -4.5400   -2.9140    5.0110 C.ar    1  LIG1        0.2738
      4 C          -3.5590   -2.3670    4.1840 C.ar    1  LIG1        0.0264
      5 C          -3.3670   -0.9860    4.1470 C.ar    1  LIG1        0.0288
      6 C          -4.1580   -0.1520    4.9390 C.ar    1  LIG1       -0.0505
      7 N          -4.7350   -4.3200    5.0490 N.pl3   1  LIG1        0.0796
      8 O          -5.6230   -4.7910    5.8010 O.co2   1  LIG1       -0.5760
      9 O          -4.0140   -5.0540    4.3310 O.2     1  LIG1        0.0414
     10 C          -2.3560   -0.4220    3.2990 C.ar    1  LIG1        0.2023
     11 N          -1.5640   -1.2060    2.5110 N.ar    1  LIG1       -0.1913
     12 C          -0.8390   -0.3030    1.9520 C.ar    1  LIG1        0.2277
     13 C           0.2650   -0.4910    0.9450 C.3     1  LIG1        0.0270
     14 C          -0.1980   -0.4670   -0.5190 C.3     1  LIG1       -0.0345
     15 C          -1.2420   -1.5350   -0.8580 C.3     1  LIG1        0.0452
     16 C          -0.7480   -2.9520   -0.6660 C.2     1  LIG1        0.3047
     17 O           0.4190   -3.3100   -0.7360 O.2     1  LIG1       -0.2510
     18 O          -1.7730   -3.8160   -0.4440 O.3     1  LIG1       -0.4806
     19 O          -1.0830    0.9710    2.2970 O.2     1  LIG1       -0.3377
     20 N          -2.1290    0.8920    3.2250 N.ar    1  LIG1       -0.0561
     21 H          -1.5120   -4.7560   -0.3430 H       1  LIG1        0.2951
     22 H          -2.1440   -1.3720   -0.2580 H       1  LIG1        0.0378
     23 H          -1.5160   -1.4440   -1.9160 H       1  LIG1        0.0378
     24 H          -0.6600    0.5130   -0.6930 H       1  LIG1        0.0275
     25 H           0.6630   -0.5290   -1.1960 H       1  LIG1        0.0275
     26 H           0.7480   -1.4560    1.1470 H       1  LIG1        0.0361
     27 H           1.0470    0.2630    1.0990 H       1  LIG1        0.0361
     28 H          -4.0210    0.9270    4.9210 H       1  LIG1        0.0625
     29 H          -5.7560   -0.0490    6.3800 H       1  LIG1        0.0620
     30 H          -6.0990   -2.4930    6.4500 H       1  LIG1        0.0685
     31 H          -2.9430   -3.0210    3.5690 H       1  LIG1        0.0692
@<TRIPOS>BOND
     1     1     6   ar
     2     1     2   ar
     3     1    29    1
     4     2     3   ar
     5     2    30    1
     6     3     4   ar
     7     3     7    1
     8     4     5   ar
     9     4    31    1
    10     5    10    1
    11     5     6   ar
    12     6    28    1
    13     7     8    1
    14     7     9    2
    15    10    11   ar
    16    10    20   ar
    17    11    12   ar
    18    12    13    1
    19    12    19   ar
    20    13    14    1
    21    13    26    1
    22    13    27    1
    23    14    15    1
    24    14    24    1
    25    14    25    1
    26    15    16    1
    27    15    22    1
    28    15    23    1
    29    16    17    2
    30    16    18    1
    31    18    21    1
    32    19    20   ar
