BTO
  Mrv15b2303062314202D          

 20 21  0  0  0  0            999 V2000
   -3.6985    0.0323    0.0000 C   0  0  0  0  0  0  0  0  0  0  0  0
   -4.1834   -0.6352    0.0000 C   0  0  0  0  0  0  0  0  0  0  0  0
   -3.8479   -1.3889    0.0000 C   0  0  0  0  0  0  0  0  0  0  0  0
   -3.0274   -1.4751    0.0000 C   0  0  0  0  0  0  0  0  0  0  0  0
   -2.5425   -0.8077    0.0000 C   0  0  0  0  0  0  0  0  0  0  0  0
   -2.8780   -0.0540    0.0000 C   0  0  0  0  0  0  0  0  0  0  0  0
   -4.3328   -2.0563    0.0000 N   0  0  0  0  0  0  0  0  0  0  0  0
   -5.1533   -1.9701    0.0000 O   0  5  0  0  0  0  0  0  0  0  0  0
   -3.9972   -2.8100    0.0000 O   0  0  0  0  0  0  0  0  0  0  0  0
   -1.7220   -0.8939    0.0000 C   0  0  0  0  0  0  0  0  0  0  0  0
   -1.1700   -0.2808    0.0000 N   0  0  0  0  0  0  0  0  0  0  0  0
   -0.4163   -0.6164    0.0000 C   0  0  0  0  0  0  0  0  0  0  0  0
    0.2982   -0.2039    0.0000 C   0  0  0  0  0  0  0  0  0  0  0  0
    1.0127   -0.6164    0.0000 C   0  0  0  0  0  0  0  0  0  0  0  0
    1.7271   -0.2039    0.0000 C   0  0  0  0  0  0  0  0  0  0  0  0
    2.4416   -0.6164    0.0000 C   0  0  0  0  0  0  0  0  0  0  0  0
    3.1561   -0.2039    0.0000 O   0  0  0  0  0  0  0  0  0  0  0  0
    2.4416   -1.4414    0.0000 O   0  0  0  0  0  0  0  0  0  0  0  0
   -0.5025   -1.4368    0.0000 O   0  0  0  0  0  0  0  0  0  0  0  0
   -1.3095   -1.6084    0.0000 N   0  0  0  0  0  0  0  0  0  0  0  0
  1  6  4  0  0  0  0
  1  2  4  0  0  0  0
  2  3  4  0  0  0  0
  3  4  4  0  0  0  0
  3  7  1  0  0  0  0
  4  5  4  0  0  0  0
  5 10  1  0  0  0  0
  5  6  4  0  0  0  0
  7  8  1  0  0  0  0
  7  9  2  0  0  0  0
 10 11  4  0  0  0  0
 10 20  4  0  0  0  0
 11 12  4  0  0  0  0
 12 13  1  0  0  0  0
 12 19  4  0  0  0  0
 13 14  1  0  0  0  0
 14 15  1  0  0  0  0
 15 16  1  0  0  0  0
 16 17  2  0  0  0  0
 16 18  1  0  0  0  0
 19 20  4  0  0  0  0
M  CHG  1   8  -1
M  END
