BTO
  -OEChem-02242319233D

 31 32  0     0  0  0  0  0  0999 V2000
   -5.1390   -0.6990    5.7650 C   0  0  0  0  0  0  0  0  0  0  0  0
   -5.3310   -2.0800    5.8010 C   0  0  0  0  0  0  0  0  0  0  0  0
   -4.5400   -2.9140    5.0110 C   0  0  0  0  0  0  0  0  0  0  0  0
   -3.5590   -2.3670    4.1840 C   0  0  0  0  0  0  0  0  0  0  0  0
   -3.3670   -0.9860    4.1470 C   0  0  0  0  0  0  0  0  0  0  0  0
   -4.1580   -0.1520    4.9390 C   0  0  0  0  0  0  0  0  0  0  0  0
   -4.7350   -4.3200    5.0490 N   0  3  0  0  0  0  0  0  0  0  0  0
   -5.6230   -4.7910    5.8010 O   0  5  0  0  0  0  0  0  0  0  0  0
   -4.0140   -5.0540    4.3310 O   0  0  0  0  0  0  0  0  0  0  0  0
   -2.3560   -0.4220    3.2990 C   0  0  0  0  0  0  0  0  0  0  0  0
   -1.5640   -1.2060    2.5110 N   0  0  0  0  0  0  0  0  0  0  0  0
   -0.8390   -0.3030    1.9520 C   0  0  0  0  0  0  0  0  0  0  0  0
    0.2650   -0.4910    0.9450 C   0  0  0  0  0  0  0  0  0  0  0  0
   -0.1980   -0.4670   -0.5190 C   0  0  0  0  0  0  0  0  0  0  0  0
   -1.2420   -1.5350   -0.8580 C   0  0  0  0  0  0  0  0  0  0  0  0
   -0.7480   -2.9520   -0.6660 C   0  0  0  0  0  0  0  0  0  0  0  0
    0.4190   -3.3100   -0.7360 O   0  0  0  0  0  0  0  0  0  0  0  0
   -1.7730   -3.8160   -0.4440 O   0  0  0  0  0  0  0  0  0  0  0  0
   -1.0830    0.9710    2.2970 O   0  0  0  0  0  0  0  0  0  0  0  0
   -2.1290    0.8920    3.2250 N   0  0  0  0  0  0  0  0  0  0  0  0
   -1.5120   -4.7560   -0.3430 H   0  0  0  0  0  0  0  0  0  0  0  0
   -2.1440   -1.3720   -0.2580 H   0  0  0  0  0  0  0  0  0  0  0  0
   -1.5160   -1.4440   -1.9160 H   0  0  0  0  0  0  0  0  0  0  0  0
   -0.6600    0.5130   -0.6930 H   0  0  0  0  0  0  0  0  0  0  0  0
    0.6630   -0.5290   -1.1960 H   0  0  0  0  0  0  0  0  0  0  0  0
    0.7480   -1.4560    1.1470 H   0  0  0  0  0  0  0  0  0  0  0  0
    1.0470    0.2630    1.0990 H   0  0  0  0  0  0  0  0  0  0  0  0
   -4.0210    0.9270    4.9210 H   0  0  0  0  0  0  0  0  0  0  0  0
   -5.7560   -0.0490    6.3800 H   0  0  0  0  0  0  0  0  0  0  0  0
   -6.0990   -2.4930    6.4500 H   0  0  0  0  0  0  0  0  0  0  0  0
   -2.9430   -3.0210    3.5690 H   0  0  0  0  0  0  0  0  0  0  0  0
  1  6  2  0  0  0  0
  1  2  1  0  0  0  0
  1 29  1  0  0  0  0
  2  3  2  0  0  0  0
  2 30  1  0  0  0  0
  3  4  1  0  0  0  0
  3  7  1  0  0  0  0
  4  5  2  0  0  0  0
  4 31  1  0  0  0  0
  5 10  1  0  0  0  0
  5  6  1  0  0  0  0
  6 28  1  0  0  0  0
  7  8  1  0  0  0  0
  7  9  2  0  0  0  0
 10 11  1  0  0  0  0
 10 20  2  0  0  0  0
 11 12  2  0  0  0  0
 12 13  1  0  0  0  0
 12 19  1  0  0  0  0
 13 14  1  0  0  0  0
 13 26  1  0  0  0  0
 13 27  1  0  0  0  0
 14 15  1  0  0  0  0
 14 24  1  0  0  0  0
 14 25  1  0  0  0  0
 15 16  1  0  0  0  0
 15 22  1  0  0  0  0
 15 23  1  0  0  0  0
 16 17  2  0  0  0  0
 16 18  1  0  0  0  0
 18 21  1  0  0  0  0
 19 20  1  0  0  0  0
M  CHG  2   7   1   8  -1
M  END
> <OPENEYE_ISO_SMILES>
c1cc(cc(c1)[N+](=O)[O-])c2nc(on2)CCCC(=O)O

> <OPENEYE_INCHI>
InChI=1S/C12H11N3O5/c16-11(17)6-2-5-10-13-12(14-20-10)8-3-1-4-9(7-8)15(18)19/h1,3-4,7H,2,5-6H2,(H,16,17)

> <OPENEYE_INCHIKEY>
LQQYZJRCWBRIMW-UHFFFAOYSA-N

> <FORMULA>
C12H11N3O5

$$$$
