@<TRIPOS>MOLECULE
ZES
 37 39 0 0 0
SMALL
GASTEIGER

@<TRIPOS>ATOM
      1 C          -2.8510   -0.3070   -3.7880 C.ar    1  LIG1       -0.0425
      2 C          -2.5070   -1.0320   -2.6680 C.ar    1  LIG1       -0.0460
      3 C          -1.2450   -0.8640   -2.1020 C.ar    1  LIG1        0.0633
      4 C          -0.3350    0.0450   -2.6690 C.ar    1  LIG1        0.0606
      5 C          -0.6950    0.7620   -3.7990 C.ar    1  LIG1       -0.0189
      6 C          -1.9500    0.5850   -4.3510 C.ar    1  LIG1        0.0430
      7 C          -0.8260   -1.6130   -0.9050 C.ar    1  LIG1        0.2646
      8 N           0.4120   -1.3950   -0.4130 N.ar    1  LIG1       -0.2559
      9 C           1.2470   -0.5200   -0.9940 C.ar    1  LIG1        0.3332
     10 N           0.9150    0.1880   -2.0870 N.ar    1  LIG1       -0.2824
     11 C           0.8520   -2.1270    0.7760 C.3     1  LIG1        0.0587
     12 C           0.4920   -1.3420    2.0110 C.ar    1  LIG1        0.0077
     13 C           1.0070   -0.0700    2.1970 C.ar    1  LIG1        0.1293
     14 C           0.6720    0.6520    3.3290 C.ar    1  LIG1       -0.0121
     15 C          -0.1680    0.0990    4.2780 C.ar    1  LIG1        0.0206
     16 C          -0.6770   -1.1730    4.0930 C.ar    1  LIG1       -0.0473
     17 C          -0.3470   -1.8930    2.9600 C.ar    1  LIG1       -0.0531
     18 CL         -2.4040    1.4900   -5.7620 Cl      1  LIG1       -0.0835
     19 C           1.8820    1.1260   -2.6640 C.3     1  LIG1        0.1249
     20 C           2.7240    0.4110   -3.6900 C.2     1  LIG1        0.3249
     21 O           2.5360   -0.7600   -3.9150 O.2     1  LIG1       -0.2490
     22 O           3.6820    1.0770   -4.3530 O.3     1  LIG1       -0.4794
     23 O           2.3520   -0.3610   -0.5110 O.2     1  LIG1       -0.2462
     24 O          -1.5770   -2.4080   -0.3720 O.2     1  LIG1       -0.2668
     25 F           1.8280    0.4680    1.2690 F       1  LIG1       -0.2051
     26 BR         -0.6200    1.0820    5.8280 Br      1  LIG1       -0.0502
     27 H          -3.8280   -0.4340   -4.2310 H       1  LIG1        0.0632
     28 H          -3.2100   -1.7270   -2.2320 H       1  LIG1        0.0626
     29 H          -0.0010    1.4590   -4.2440 H       1  LIG1        0.0653
     30 H           0.3600   -3.0990    0.8070 H       1  LIG1        0.0545
     31 H           1.9320   -2.2680    0.7370 H       1  LIG1        0.0545
     32 H           1.0700    1.6450    3.4730 H       1  LIG1        0.0657
     33 H          -1.3340   -1.6050    4.8340 H       1  LIG1        0.0629
     34 H          -0.7450   -2.8870    2.8170 H       1  LIG1        0.0622
     35 H           2.5240    1.5170   -1.8760 H       1  LIG1        0.0609
     36 H           1.3490    1.9490   -3.1410 H       1  LIG1        0.0609
     37 H           4.2220    0.6180   -5.0110 H       1  LIG1        0.2951
@<TRIPOS>BOND
     1     1     2   ar
     2     1     6   ar
     3     1    27    1
     4     2     3   ar
     5     2    28    1
     6     3     4   ar
     7     3     7   ar
     8     4     5   ar
     9     4    10   ar
    10     5     6   ar
    11     5    29    1
    12     6    18    1
    13     7     8   ar
    14     7    24    2
    15     8     9   ar
    16     8    11    1
    17     9    10   ar
    18     9    23    2
    19    10    19    1
    20    11    12    1
    21    11    30    1
    22    11    31    1
    23    12    13   ar
    24    12    17   ar
    25    13    14   ar
    26    13    25    1
    27    14    15   ar
    28    14    32    1
    29    15    16   ar
    30    15    26    1
    31    16    17   ar
    32    16    33    1
    33    17    34    1
    34    19    20    1
    35    19    35    1
    36    19    36    1
    37    20    21    2
    38    20    22    1
    39    22    37    1
