ZES
  Mrv15b2303062314222D          

 26 28  0  0  0  0            999 V2000
   -2.1627   -0.0672    0.0000 C   0  0  0  0  0  0  0  0  0  0  0  0
   -1.4482   -0.4797    0.0000 C   0  0  0  0  0  0  0  0  0  0  0  0
   -0.7338   -0.0672    0.0000 C   0  0  0  0  0  0  0  0  0  0  0  0
   -0.7338    0.7578    0.0000 C   0  0  0  0  0  0  0  0  0  0  0  0
   -1.4482    1.1703    0.0000 C   0  0  0  0  0  0  0  0  0  0  0  0
   -2.1627    0.7578    0.0000 C   0  0  0  0  0  0  0  0  0  0  0  0
   -0.0193   -0.4797    0.0000 C   0  0  0  0  0  0  0  0  0  0  0  0
    0.6952   -0.0672    0.0000 N   0  0  0  0  0  0  0  0  0  0  0  0
    0.6952    0.7578    0.0000 C   0  0  0  0  0  0  0  0  0  0  0  0
   -0.0193    1.1703    0.0000 N   0  0  0  0  0  0  0  0  0  0  0  0
    1.4097   -0.4797    0.0000 C   0  0  0  0  0  0  0  0  0  0  0  0
    1.4097   -1.3047    0.0000 C   0  0  0  0  0  0  0  0  0  0  0  0
    2.1241   -1.7172    0.0000 C   0  0  0  0  0  0  0  0  0  0  0  0
    2.1241   -2.5422    0.0000 C   0  0  0  0  0  0  0  0  0  0  0  0
    1.4097   -2.9547    0.0000 C   0  0  0  0  0  0  0  0  0  0  0  0
    0.6952   -2.5422    0.0000 C   0  0  0  0  0  0  0  0  0  0  0  0
    0.6952   -1.7172    0.0000 C   0  0  0  0  0  0  0  0  0  0  0  0
   -2.8772    1.1703    0.0000 Cl  0  0  0  0  0  0  0  0  0  0  0  0
   -0.0193    1.9953    0.0000 C   0  0  0  0  0  0  0  0  0  0  0  0
   -0.7338    2.4078    0.0000 C   0  0  0  0  0  0  0  0  0  0  0  0
   -1.4482    1.9953    0.0000 O   0  0  0  0  0  0  0  0  0  0  0  0
   -0.7338    3.2328    0.0000 O   0  0  0  0  0  0  0  0  0  0  0  0
    1.4097    1.1703    0.0000 O   0  0  0  0  0  0  0  0  0  0  0  0
   -0.0193   -1.3047    0.0000 O   0  0  0  0  0  0  0  0  0  0  0  0
    2.8386   -1.3047    0.0000 F   0  0  0  0  0  0  0  0  0  0  0  0
    1.4097   -3.7797    0.0000 Br  0  0  0  0  0  0  0  0  0  0  0  0
  1  2  4  0  0  0  0
  1  6  4  0  0  0  0
  2  3  4  0  0  0  0
  3  4  4  0  0  0  0
  3  7  4  0  0  0  0
  4  5  4  0  0  0  0
  4 10  4  0  0  0  0
  5  6  4  0  0  0  0
  6 18  1  0  0  0  0
  7  8  4  0  0  0  0
  7 24  2  0  0  0  0
  8  9  4  0  0  0  0
  8 11  1  0  0  0  0
  9 10  4  0  0  0  0
  9 23  2  0  0  0  0
 10 19  1  0  0  0  0
 11 12  1  0  0  0  0
 12 13  4  0  0  0  0
 12 17  4  0  0  0  0
 13 14  4  0  0  0  0
 13 25  1  0  0  0  0
 14 15  4  0  0  0  0
 15 16  4  0  0  0  0
 15 26  1  0  0  0  0
 16 17  4  0  0  0  0
 19 20  1  0  0  0  0
 20 21  2  0  0  0  0
 20 22  1  0  0  0  0
M  END
