ZES
  -OEChem-02242319263D

 37 39  0     0  0  0  0  0  0999 V2000
   -2.8510   -0.3070   -3.7880 C   0  0  0  0  0  0  0  0  0  0  0  0
   -2.5070   -1.0320   -2.6680 C   0  0  0  0  0  0  0  0  0  0  0  0
   -1.2450   -0.8640   -2.1020 C   0  0  0  0  0  0  0  0  0  0  0  0
   -0.3350    0.0450   -2.6690 C   0  0  0  0  0  0  0  0  0  0  0  0
   -0.6950    0.7620   -3.7990 C   0  0  0  0  0  0  0  0  0  0  0  0
   -1.9500    0.5850   -4.3510 C   0  0  0  0  0  0  0  0  0  0  0  0
   -0.8260   -1.6130   -0.9050 C   0  0  0  0  0  0  0  0  0  0  0  0
    0.4120   -1.3950   -0.4130 N   0  0  0  0  0  0  0  0  0  0  0  0
    1.2470   -0.5200   -0.9940 C   0  0  0  0  0  0  0  0  0  0  0  0
    0.9150    0.1880   -2.0870 N   0  0  0  0  0  0  0  0  0  0  0  0
    0.8520   -2.1270    0.7760 C   0  0  0  0  0  0  0  0  0  0  0  0
    0.4920   -1.3420    2.0110 C   0  0  0  0  0  0  0  0  0  0  0  0
    1.0070   -0.0700    2.1970 C   0  0  0  0  0  0  0  0  0  0  0  0
    0.6720    0.6520    3.3290 C   0  0  0  0  0  0  0  0  0  0  0  0
   -0.1680    0.0990    4.2780 C   0  0  0  0  0  0  0  0  0  0  0  0
   -0.6770   -1.1730    4.0930 C   0  0  0  0  0  0  0  0  0  0  0  0
   -0.3470   -1.8930    2.9600 C   0  0  0  0  0  0  0  0  0  0  0  0
   -2.4040    1.4900   -5.7620 Cl  0  0  0  0  0  0  0  0  0  0  0  0
    1.8820    1.1260   -2.6640 C   0  0  0  0  0  0  0  0  0  0  0  0
    2.7240    0.4110   -3.6900 C   0  0  0  0  0  0  0  0  0  0  0  0
    2.5360   -0.7600   -3.9150 O   0  0  0  0  0  0  0  0  0  0  0  0
    3.6820    1.0770   -4.3530 O   0  0  0  0  0  0  0  0  0  0  0  0
    2.3520   -0.3610   -0.5110 O   0  0  0  0  0  0  0  0  0  0  0  0
   -1.5770   -2.4080   -0.3720 O   0  0  0  0  0  0  0  0  0  0  0  0
    1.8280    0.4680    1.2690 F   0  0  0  0  0  0  0  0  0  0  0  0
   -0.6200    1.0820    5.8280 Br  0  0  0  0  0  0  0  0  0  0  0  0
   -3.8280   -0.4340   -4.2310 H   0  0  0  0  0  0  0  0  0  0  0  0
   -3.2100   -1.7270   -2.2320 H   0  0  0  0  0  0  0  0  0  0  0  0
   -0.0010    1.4590   -4.2440 H   0  0  0  0  0  0  0  0  0  0  0  0
    0.3600   -3.0990    0.8070 H   0  0  0  0  0  0  0  0  0  0  0  0
    1.9320   -2.2680    0.7370 H   0  0  0  0  0  0  0  0  0  0  0  0
    1.0700    1.6450    3.4730 H   0  0  0  0  0  0  0  0  0  0  0  0
   -1.3340   -1.6050    4.8340 H   0  0  0  0  0  0  0  0  0  0  0  0
   -0.7450   -2.8870    2.8170 H   0  0  0  0  0  0  0  0  0  0  0  0
    2.5240    1.5170   -1.8760 H   0  0  0  0  0  0  0  0  0  0  0  0
    1.3490    1.9490   -3.1410 H   0  0  0  0  0  0  0  0  0  0  0  0
    4.2220    0.6180   -5.0110 H   0  0  0  0  0  0  0  0  0  0  0  0
  1  2  2  0  0  0  0
  1  6  1  0  0  0  0
  1 27  1  0  0  0  0
  2  3  1  0  0  0  0
  2 28  1  0  0  0  0
  3  4  2  0  0  0  0
  3  7  1  0  0  0  0
  4  5  1  0  0  0  0
  4 10  1  0  0  0  0
  5  6  2  0  0  0  0
  5 29  1  0  0  0  0
  6 18  1  0  0  0  0
  7  8  1  0  0  0  0
  7 24  2  0  0  0  0
  8  9  1  0  0  0  0
  8 11  1  0  0  0  0
  9 10  1  0  0  0  0
  9 23  2  0  0  0  0
 10 19  1  0  0  0  0
 11 12  1  0  0  0  0
 11 30  1  0  0  0  0
 11 31  1  0  0  0  0
 12 13  2  0  0  0  0
 12 17  1  0  0  0  0
 13 14  1  0  0  0  0
 13 25  1  0  0  0  0
 14 15  2  0  0  0  0
 14 32  1  0  0  0  0
 15 16  1  0  0  0  0
 15 26  1  0  0  0  0
 16 17  2  0  0  0  0
 16 33  1  0  0  0  0
 17 34  1  0  0  0  0
 19 20  1  0  0  0  0
 19 35  1  0  0  0  0
 19 36  1  0  0  0  0
 20 21  2  0  0  0  0
 20 22  1  0  0  0  0
 22 37  1  0  0  0  0
M  END
> <OPENEYE_ISO_SMILES>
c1cc2c(cc1Cl)n(c(=O)n(c2=O)Cc3ccc(cc3F)Br)CC(=O)O

> <OPENEYE_INCHI>
InChI=1S/C17H11BrClFN2O4/c18-10-2-1-9(13(20)5-10)7-22-16(25)12-4-3-11(19)6-14(12)21(17(22)26)8-15(23)24/h1-6H,7-8H2,(H,23,24)

> <OPENEYE_INCHIKEY>
SXONDGSPUVNZLO-UHFFFAOYSA-N

> <FORMULA>
C17H11BrClFN2O4

$$$$
