5FO
 OpenBabel10042221403D

 57 59  0  0  0  0  0  0  0  0999 V2000
  -23.6040   32.9060   71.2780 C   0  0  0  0  0  0  0  0  0  0  0  0
  -23.2750   33.5340   70.0810 C   0  0  0  0  0  0  0  0  0  0  0  0
  -24.9790   31.3770   70.0660 C   0  0  0  0  0  0  0  0  0  0  0  0
  -24.4110   31.7760   71.2540 C   0  0  0  0  0  0  0  0  0  0  0  0
  -23.7930   33.0750   68.8720 C   0  0  0  0  0  0  0  0  0  0  0  0
  -24.5860   31.9310   68.8670 C   0  0  0  0  0  0  0  0  0  0  0  0
  -24.8480   30.9070   72.7140 S   0  0  0  0  0  0  0  0  0  0  0  0
  -26.2380   30.3650   72.5030 O   0  0  0  0  0  0  0  0  0  0  0  0
  -24.9040   31.8900   73.8490 O   0  0  0  0  0  0  0  0  0  0  0  0
  -23.7800   29.6820   73.1120 N   0  0  0  0  0  0  0  0  0  0  0  0
  -22.7570   29.5690   72.0520 C   0  0  0  0  0  0  0  0  0  0  0  0
  -21.7560   28.4610   72.4070 C   0  0  0  0  0  0  0  0  0  0  0  0
  -22.4340   27.1720   72.5440 N   0  0  0  0  0  0  0  0  0  0  0  0
  -23.0100   26.8420   71.2230 C   0  0  0  0  0  0  0  0  0  0  0  0
  -23.4440   27.2840   73.6250 C   0  0  0  0  0  0  0  0  0  0  0  0
  -24.4640   28.3750   73.2710 C   0  0  0  0  0  0  0  0  0  0  0  0
  -25.1890   31.4120   67.7300 C   0  0  0  0  0  0  0  0  0  0  0  0
  -26.4150   31.8170   67.3940 N   0  0  0  0  0  0  0  0  0  0  0  0
  -27.0330   31.3680   66.2890 C   0  0  0  0  0  0  0  0  0  0  0  0
  -26.3670   30.5150   65.4050 C   0  0  0  0  0  0  0  0  0  0  0  0
  -25.0630   30.1260   65.6970 C   0  0  0  0  0  0  0  0  0  0  0  0
  -26.9960   30.0670   64.2840 F   0  0  0  0  0  0  0  0  0  0  0  0
  -24.4650   30.6670   66.8210 N   0  0  0  0  0  0  0  0  0  0  0  0
  -24.4090   29.3640   64.9760 O   0  0  0  0  0  0  0  0  0  0  0  0
  -28.4590   31.8700   66.0710 C   0  0  0  0  0  0  0  0  0  0  0  0
  -29.0590   32.2060   67.4440 C   0  0  0  0  0  0  0  0  0  0  0  0
  -23.5000   33.7050   67.7000 O   0  0  0  0  0  0  0  0  0  0  0  0
  -22.0730   33.7400   67.3900 C   0  0  0  0  0  0  0  0  0  0  0  0
  -21.8380   32.9150   66.1170 C   0  0  0  0  0  0  0  0  0  0  0  0
  -20.8260   31.7920   66.3580 C   0  0  0  0  0  0  0  0  0  0  0  0
  -23.2287   33.3005   72.2338 H   0  0  0  0  0  0  0  0  0  0  0  0
  -22.5990   34.4017   70.0893 H   0  0  0  0  0  0  0  0  0  0  0  0
  -25.7601   30.6026   70.0735 H   0  0  0  0  0  0  0  0  0  0  0  0
  -23.2465   29.3260   71.0973 H   0  0  0  0  0  0  0  0  0  0  0  0
  -22.2213   30.5256   71.9627 H   0  0  0  0  0  0  0  0  0  0  0  0
  -21.0010   28.3884   71.6103 H   0  0  0  0  0  0  0  0  0  0  0  0
  -21.2784   28.7116   73.3657 H   0  0  0  0  0  0  0  0  0  0  0  0
  -23.9569   26.2995   71.3610 H   0  0  0  0  0  0  0  0  0  0  0  0
  -23.1973   27.7698   70.6625 H   0  0  0  0  0  0  0  0  0  0  0  0
  -22.3044   26.2112   70.6625 H   0  0  0  0  0  0  0  0  0  0  0  0
  -23.9638   26.3215   73.7406 H   0  0  0  0  0  0  0  0  0  0  0  0
  -22.9409   27.5483   74.5668 H   0  0  0  0  0  0  0  0  0  0  0  0
  -24.9668   28.1108   72.3290 H   0  0  0  0  0  0  0  0  0  0  0  0
  -25.2034   28.4525   74.0817 H   0  0  0  0  0  0  0  0  0  0  0  0
  -23.4598   30.5109   66.9828 H   0  0  0  0  0  0  0  0  0  0  0  0
  -28.4453   32.7703   65.4392 H   0  0  0  0  0  0  0  0  0  0  0  0
  -29.0625   31.0999   65.5684 H   0  0  0  0  0  0  0  0  0  0  0  0
  -28.3932   31.8332   68.2363 H   0  0  0  0  0  0  0  0  0  0  0  0
  -29.1680   33.2964   67.5396 H   0  0  0  0  0  0  0  0  0  0  0  0
  -30.0456   31.7291   67.5396 H   0  0  0  0  0  0  0  0  0  0  0  0
  -21.7534   34.7794   67.2243 H   0  0  0  0  0  0  0  0  0  0  0  0
  -21.4924   33.3224   68.2258 H   0  0  0  0  0  0  0  0  0  0  0  0
  -22.7928   32.4734   65.7954 H   0  0  0  0  0  0  0  0  0  0  0  0
  -21.4357   33.5829   65.3410 H   0  0  0  0  0  0  0  0  0  0  0  0
  -20.6929   31.6443   67.4399 H   0  0  0  0  0  0  0  0  0  0  0  0
  -21.1961   30.8611   65.9036 H   0  0  0  0  0  0  0  0  0  0  0  0
  -19.8617   32.0636   65.9036 H   0  0  0  0  0  0  0  0  0  0  0  0
  1 31  1  0  0  0  0
  2  1  2  0  0  0  0
  2 32  1  0  0  0  0
  3 33  1  0  0  0  0
  4  3  2  0  0  0  0
  4  1  1  0  0  0  0
  5  2  1  0  0  0  0
  6  3  1  0  0  0  0
  6  5  2  0  0  0  0
  7  4  1  0  0  0  0
  8  7  2  0  0  0  0
  9  7  2  0  0  0  0
 10  7  1  0  0  0  0
 11 10  1  0  0  0  0
 11 34  1  0  0  0  0
 11 35  1  0  0  0  0
 12 11  1  0  0  0  0
 12 36  1  0  0  0  0
 12 37  1  0  0  0  0
 13 12  1  0  0  0  0
 14 13  1  0  0  0  0
 14 38  1  0  0  0  0
 14 39  1  0  0  0  0
 14 40  1  0  0  0  0
 15 13  1  0  0  0  0
 15 41  1  0  0  0  0
 15 42  1  0  0  0  0
 16 15  1  0  0  0  0
 16 10  1  0  0  0  0
 16 43  1  0  0  0  0
 16 44  1  0  0  0  0
 17  6  1  0  0  0  0
 18 17  2  0  0  0  0
 19 18  1  0  0  0  0
 20 19  2  0  0  0  0
 21 20  1  0  0  0  0
 22 20  1  0  0  0  0
 23 21  1  0  0  0  0
 23 17  1  0  0  0  0
 23 45  1  0  0  0  0
 24 21  2  0  0  0  0
 25 19  1  0  0  0  0
 25 46  1  0  0  0  0
 25 47  1  0  0  0  0
 26 25  1  0  0  0  0
 26 48  1  0  0  0  0
 26 49  1  0  0  0  0
 26 50  1  0  0  0  0
 27  5  1  0  0  0  0
 28 27  1  0  0  0  0
 28 51  1  0  0  0  0
 28 52  1  0  0  0  0
 29 28  1  0  0  0  0
 29 53  1  0  0  0  0
 29 54  1  0  0  0  0
 30 29  1  0  0  0  0
 30 55  1  0  0  0  0
 30 56  1  0  0  0  0
 30 57  1  0  0  0  0
M  END
$$$$
