@<TRIPOS>MOLECULE
5FO
 57 59 0 0 0
SMALL
GASTEIGER

@<TRIPOS>ATOM
      1 C         -23.6040   32.9060   71.2780 C.ar    1  UNL1       -0.0319
      2 C         -23.2750   33.5340   70.0810 C.ar    1  UNL1       -0.0174
      3 C         -24.9790   31.3770   70.0660 C.ar    1  UNL1       -0.0212
      4 C         -24.4110   31.7760   71.2540 C.ar    1  UNL1        0.1064
      5 C         -23.7930   33.0750   68.8720 C.ar    1  UNL1        0.1312
      6 C         -24.5860   31.9310   68.8670 C.ar    1  UNL1        0.0608
      7 S         -24.8480   30.9070   72.7140 S.O2    1  UNL1        0.0610
      8 O         -26.2380   30.3650   72.5030 O.2     1  UNL1       -0.1528
      9 O         -24.9040   31.8900   73.8490 O.2     1  UNL1       -0.1528
     10 N         -23.7800   29.6820   73.1120 N.3     1  UNL1       -0.1741
     11 C         -22.7570   29.5690   72.0520 C.3     1  UNL1        0.0333
     12 C         -21.7560   28.4610   72.4070 C.3     1  UNL1        0.0131
     13 N         -22.4340   27.1720   72.5440 N.3     1  UNL1       -0.3028
     14 C         -23.0100   26.8420   71.2230 C.3     1  UNL1       -0.0127
     15 C         -23.4440   27.2840   73.6250 C.3     1  UNL1        0.0131
     16 C         -24.4640   28.3750   73.2710 C.3     1  UNL1        0.0333
     17 C         -25.1890   31.4120   67.7300 C.ar    1  UNL1        0.1448
     18 N         -26.4150   31.8170   67.3940 N.ar    1  UNL1       -0.2309
     19 C         -27.0330   31.3680   66.2890 C.ar    1  UNL1        0.0838
     20 C         -26.3670   30.5150   65.4050 C.ar    1  UNL1        0.2085
     21 C         -25.0630   30.1260   65.6970 C.ar    1  UNL1        0.2874
     22 F         -26.9960   30.0670   64.2840 F       1  UNL1       -0.1979
     23 N         -24.4650   30.6670   66.8210 N.ar    1  UNL1       -0.3045
     24 O         -24.4090   29.3640   64.9760 O.2     1  UNL1       -0.2647
     25 C         -28.4590   31.8700   66.0710 C.3     1  UNL1       -0.0102
     26 C         -29.0590   32.2060   67.4440 C.3     1  UNL1       -0.0597
     27 O         -23.5000   33.7050   67.7000 O.3     1  UNL1       -0.4913
     28 C         -22.0730   33.7400   67.3900 C.3     1  UNL1        0.0894
     29 C         -21.8380   32.9150   66.1170 C.3     1  UNL1       -0.0215
     30 C         -20.8260   31.7920   66.3580 C.3     1  UNL1       -0.0622
     31 H         -23.2287   33.3005   72.2338 H       1  UNL1        0.0638
     32 H         -22.5990   34.4017   70.0893 H       1  UNL1        0.0655
     33 H         -25.7601   30.6026   70.0735 H       1  UNL1        0.0645
     34 H         -23.2465   29.3260   71.0973 H       1  UNL1        0.0456
     35 H         -22.2213   30.5256   71.9627 H       1  UNL1        0.0456
     36 H         -21.0010   28.3884   71.6103 H       1  UNL1        0.0439
     37 H         -21.2784   28.7116   73.3657 H       1  UNL1        0.0439
     38 H         -23.9569   26.2995   71.3610 H       1  UNL1        0.0391
     39 H         -23.1973   27.7698   70.6625 H       1  UNL1        0.0391
     40 H         -22.3044   26.2112   70.6625 H       1  UNL1        0.0391
     41 H         -23.9638   26.3215   73.7406 H       1  UNL1        0.0439
     42 H         -22.9409   27.5483   74.5668 H       1  UNL1        0.0439
     43 H         -24.9668   28.1108   72.3290 H       1  UNL1        0.0456
     44 H         -25.2034   28.4525   74.0817 H       1  UNL1        0.0456
     45 H         -23.4598   30.5109   66.9828 H       1  UNL1        0.1704
     46 H         -28.4453   32.7703   65.4392 H       1  UNL1        0.0326
     47 H         -29.0625   31.0999   65.5684 H       1  UNL1        0.0326
     48 H         -28.3932   31.8332   68.2363 H       1  UNL1        0.0233
     49 H         -29.1680   33.2964   67.5396 H       1  UNL1        0.0233
     50 H         -30.0456   31.7291   67.5396 H       1  UNL1        0.0233
     51 H         -21.7534   34.7794   67.2243 H       1  UNL1        0.0696
     52 H         -21.4924   33.3224   68.2258 H       1  UNL1        0.0696
     53 H         -22.7928   32.4734   65.7954 H       1  UNL1        0.0295
     54 H         -21.4357   33.5829   65.3410 H       1  UNL1        0.0295
     55 H         -20.6929   31.6443   67.4399 H       1  UNL1        0.0231
     56 H         -21.1961   30.8611   65.9036 H       1  UNL1        0.0231
     57 H         -19.8617   32.0636   65.9036 H       1  UNL1        0.0231
@<TRIPOS>BOND
     1     2     1   ar
     2     4     3   ar
     3     4     1   ar
     4     5     2   ar
     5     6     3   ar
     6     6     5   ar
     7     7     4    1
     8     8     7    2
     9     9     7    2
    10    10     7    1
    11    11    10    1
    12    12    11    1
    13    13    12    1
    14    14    13    1
    15    15    13    1
    16    16    15    1
    17    16    10    1
    18    17     6    1
    19    18    17   ar
    20    19    18   ar
    21    20    19   ar
    22    21    20   ar
    23    22    20    1
    24    23    21   ar
    25    23    17   ar
    26    24    21    2
    27    25    19    1
    28    26    25    1
    29    27     5    1
    30    28    27    1
    31    29    28    1
    32    30    29    1
    33     1    31    1
    34     2    32    1
    35     3    33    1
    36    11    34    1
    37    11    35    1
    38    12    36    1
    39    12    37    1
    40    14    38    1
    41    14    39    1
    42    14    40    1
    43    15    41    1
    44    15    42    1
    45    16    43    1
    46    16    44    1
    47    23    45    1
    48    25    46    1
    49    25    47    1
    50    26    48    1
    51    26    49    1
    52    26    50    1
    53    28    51    1
    54    28    52    1
    55    29    53    1
    56    29    54    1
    57    30    55    1
    58    30    56    1
    59    30    57    1
