@<TRIPOS>MOLECULE
AAP
 39 40 0 0 0
SMALL
GASTEIGER

@<TRIPOS>ATOM
      1 C           7.7510  -40.3560   17.8150 C.3     1  UNL1        0.1255
      2 C           8.3070  -41.7490   17.7130 C.2     1  UNL1        0.2354
      3 N           7.8890  -42.5540   16.7350 N.am    1  UNL1       -0.3275
      4 O           9.1490  -42.0870   18.5510 O.2     1  UNL1       -0.2736
      5 C           7.8290  -39.5560   16.4840 C.ar    1  UNL1        0.0181
      6 C           9.0560  -39.1710   15.9570 C.ar    1  UNL1        0.0478
      7 CL         10.5700  -39.4560   16.7770 Cl      1  UNL1       -0.0831
      8 C           9.0890  -38.4350   14.7650 C.ar    1  UNL1       -0.0430
      9 C           7.8880  -38.0630   14.1140 C.ar    1  UNL1       -0.0590
     10 C           6.6750  -38.4430   14.6480 C.ar    1  UNL1       -0.0430
     11 C           6.6400  -39.1680   15.8250 C.ar    1  UNL1        0.0478
     12 CL          5.1030  -39.5490   16.4540 Cl      1  UNL1       -0.0831
     13 N           8.3570  -39.6620   18.9260 N.pl3   1  UNL1       -0.3288
     14 C           7.7360  -38.7960   19.8100 C.ar    1  UNL1        0.0387
     15 C           6.3640  -38.9010   20.0000 C.ar    1  UNL1       -0.0372
     16 C           5.7210  -38.0830   20.9010 C.ar    1  UNL1       -0.0487
     17 C           4.2010  -38.1700   21.1040 C.3     1  UNL1       -0.0397
     18 C           6.4480  -37.1560   21.6050 C.ar    1  UNL1       -0.0581
     19 C           7.8110  -37.0380   21.4210 C.ar    1  UNL1       -0.0492
     20 C           8.4760  -37.8370   20.5260 C.ar    1  UNL1        0.0379
     21 C           9.9930  -37.6100   20.3180 C.2     1  UNL1        0.1619
     22 C          10.5050  -36.5480   19.3500 C.3     1  UNL1       -0.0013
     23 O          10.8340  -38.3150   20.9000 O.2     1  UNL1       -0.2923
     24 H           6.6726  -40.4443   18.0129 H       1  UNL1        0.0646
     25 H           8.2652  -43.5098   16.6585 H       1  UNL1        0.1450
     26 H           7.1900  -42.2198   16.0563 H       1  UNL1        0.1450
     27 H          10.0569  -38.1436   14.3311 H       1  UNL1        0.0632
     28 H           7.9225  -37.4733   13.1861 H       1  UNL1        0.0618
     29 H           5.7384  -38.1704   14.1396 H       1  UNL1        0.0632
     30 H           9.3619  -39.8294   19.0779 H       1  UNL1        0.1471
     31 H           5.7879  -39.6424   19.4269 H       1  UNL1        0.0639
     32 H           3.9750  -38.1829   22.1805 H       1  UNL1        0.0278
     33 H           3.7184  -37.2980   20.6385 H       1  UNL1        0.0278
     34 H           3.8210  -39.0914   20.6385 H       1  UNL1        0.0278
     35 H           5.9382  -36.4988   22.3249 H       1  UNL1        0.0620
     36 H           8.3728  -36.2913   22.0014 H       1  UNL1        0.0625
     37 H          10.9139  -35.6999   19.9189 H       1  UNL1        0.0309
     38 H          11.2942  -36.9792   18.7166 H       1  UNL1        0.0309
     39 H           9.6761  -36.1991   18.7166 H       1  UNL1        0.0309
@<TRIPOS>BOND
     1     2     1    1
     2     3     2   am
     3     4     2    2
     4     5     1    1
     5     6     5   ar
     6     7     6    1
     7     8     6   ar
     8     9     8   ar
     9    10     9   ar
    10    11    10   ar
    11    11     5   ar
    12    12    11    1
    13    13     1    1
    14    14    13    1
    15    15    14   ar
    16    16    15   ar
    17    17    16    1
    18    18    16   ar
    19    19    18   ar
    20    20    14   ar
    21    20    19   ar
    22    21    20    1
    23    22    21    1
    24    23    21    2
    25     1    24    1
    26     3    25    1
    27     3    26    1
    28     8    27    1
    29     9    28    1
    30    10    29    1
    31    13    30    1
    32    15    31    1
    33    17    32    1
    34    17    33    1
    35    17    34    1
    36    18    35    1
    37    19    36    1
    38    22    37    1
    39    22    38    1
    40    22    39    1
