AAP
 OpenBabel06142214543D

 39 40  0  0  0  0  0  0  0  0999 V2000
    7.7510  -40.3560   17.8150 C   0  0  2  0  0  0  0  0  0  0  0  0
    8.3070  -41.7490   17.7130 C   0  0  0  0  0  0  0  0  0  0  0  0
    7.8890  -42.5540   16.7350 N   0  0  0  0  0  0  0  0  0  0  0  0
    9.1490  -42.0870   18.5510 O   0  0  0  0  0  0  0  0  0  0  0  0
    7.8290  -39.5560   16.4840 C   0  0  0  0  0  0  0  0  0  0  0  0
    9.0560  -39.1710   15.9570 C   0  0  0  0  0  0  0  0  0  0  0  0
   10.5700  -39.4560   16.7770 Cl  0  0  0  0  0  0  0  0  0  0  0  0
    9.0890  -38.4350   14.7650 C   0  0  0  0  0  0  0  0  0  0  0  0
    7.8880  -38.0630   14.1140 C   0  0  0  0  0  0  0  0  0  0  0  0
    6.6750  -38.4430   14.6480 C   0  0  0  0  0  0  0  0  0  0  0  0
    6.6400  -39.1680   15.8250 C   0  0  0  0  0  0  0  0  0  0  0  0
    5.1030  -39.5490   16.4540 Cl  0  0  0  0  0  0  0  0  0  0  0  0
    8.3570  -39.6620   18.9260 N   0  0  0  0  0  0  0  0  0  0  0  0
    7.7360  -38.7960   19.8100 C   0  0  0  0  0  0  0  0  0  0  0  0
    6.3640  -38.9010   20.0000 C   0  0  0  0  0  0  0  0  0  0  0  0
    5.7210  -38.0830   20.9010 C   0  0  0  0  0  0  0  0  0  0  0  0
    4.2010  -38.1700   21.1040 C   0  0  0  0  0  0  0  0  0  0  0  0
    6.4480  -37.1560   21.6050 C   0  0  0  0  0  0  0  0  0  0  0  0
    7.8110  -37.0380   21.4210 C   0  0  0  0  0  0  0  0  0  0  0  0
    8.4760  -37.8370   20.5260 C   0  0  0  0  0  0  0  0  0  0  0  0
    9.9930  -37.6100   20.3180 C   0  0  0  0  0  0  0  0  0  0  0  0
   10.5050  -36.5480   19.3500 C   0  0  0  0  0  0  0  0  0  0  0  0
   10.8340  -38.3150   20.9000 O   0  0  0  0  0  0  0  0  0  0  0  0
    6.6726  -40.4443   18.0129 H   0  0  0  0  0  0  0  0  0  0  0  0
    8.2652  -43.5098   16.6585 H   0  0  0  0  0  0  0  0  0  0  0  0
    7.1900  -42.2198   16.0563 H   0  0  0  0  0  0  0  0  0  0  0  0
   10.0569  -38.1436   14.3311 H   0  0  0  0  0  0  0  0  0  0  0  0
    7.9225  -37.4733   13.1861 H   0  0  0  0  0  0  0  0  0  0  0  0
    5.7384  -38.1704   14.1396 H   0  0  0  0  0  0  0  0  0  0  0  0
    9.3619  -39.8294   19.0779 H   0  0  0  0  0  0  0  0  0  0  0  0
    5.7879  -39.6424   19.4269 H   0  0  0  0  0  0  0  0  0  0  0  0
    3.9750  -38.1829   22.1805 H   0  0  0  0  0  0  0  0  0  0  0  0
    3.7184  -37.2980   20.6385 H   0  0  0  0  0  0  0  0  0  0  0  0
    3.8210  -39.0914   20.6385 H   0  0  0  0  0  0  0  0  0  0  0  0
    5.9382  -36.4988   22.3249 H   0  0  0  0  0  0  0  0  0  0  0  0
    8.3728  -36.2913   22.0014 H   0  0  0  0  0  0  0  0  0  0  0  0
   10.9139  -35.6999   19.9189 H   0  0  0  0  0  0  0  0  0  0  0  0
   11.2942  -36.9792   18.7166 H   0  0  0  0  0  0  0  0  0  0  0  0
    9.6761  -36.1991   18.7166 H   0  0  0  0  0  0  0  0  0  0  0  0
  1 24  1  1  0  0  0
  2  1  1  0  0  0  0
  3  2  1  0  0  0  0
  3 25  1  0  0  0  0
  3 26  1  0  0  0  0
  4  2  2  0  0  0  0
  5  1  1  0  0  0  0
  6  5  2  0  0  0  0
  7  6  1  0  0  0  0
  8  6  1  0  0  0  0
  8 27  1  0  0  0  0
  9  8  2  0  0  0  0
  9 28  1  0  0  0  0
 10  9  1  0  0  0  0
 10 29  1  0  0  0  0
 11 10  2  0  0  0  0
 11  5  1  0  0  0  0
 12 11  1  0  0  0  0
 13  1  1  0  0  0  0
 13 30  1  0  0  0  0
 14 13  1  0  0  0  0
 15 14  2  0  0  0  0
 15 31  1  0  0  0  0
 16 15  1  0  0  0  0
 17 16  1  0  0  0  0
 17 32  1  0  0  0  0
 17 33  1  0  0  0  0
 17 34  1  0  0  0  0
 18 16  2  0  0  0  0
 18 35  1  0  0  0  0
 19 18  1  0  0  0  0
 19 36  1  0  0  0  0
 20 14  1  0  0  0  0
 20 19  2  0  0  0  0
 21 20  1  0  0  0  0
 22 21  1  0  0  0  0
 22 37  1  0  0  0  0
 22 38  1  0  0  0  0
 22 39  1  0  0  0  0
 23 21  2  0  0  0  0
M  END
$$$$
