43A
  -OEChem-02242319213D

 41 44  0     0  0  0  0  0  0999 V2000
    5.6770   -0.7040   -0.1630 C   0  0  0  0  0  0  0  0  0  0  0  0
    5.1400    0.5380    0.1630 C   0  0  0  0  0  0  0  0  0  0  0  0
    3.7690    0.7240    0.1500 C   0  0  0  0  0  0  0  0  0  0  0  0
    2.9280   -0.3360   -0.1850 C   0  0  0  0  0  0  0  0  0  0  0  0
    3.4710   -1.5790   -0.5050 C   0  0  0  0  0  0  0  0  0  0  0  0
    4.8390   -1.7600   -0.4910 C   0  0  0  0  0  0  0  0  0  0  0  0
    7.0240   -0.8860   -0.1500 O   0  0  0  0  0  0  0  0  0  0  0  0
    5.9630    1.5710    0.4900 O   0  0  0  0  0  0  0  0  0  0  0  0
    5.1260    2.6960    0.7630 C   0  0  0  0  0  0  0  0  0  0  0  0
    1.4580   -0.1410   -0.2010 C   0  0  0  0  0  0  0  0  0  0  0  0
    0.6220   -1.1430    0.2830 C   0  0  0  0  0  0  0  0  0  0  0  0
   -0.7540   -0.9630    0.2750 C   0  0  0  0  0  0  0  0  0  0  0  0
   -1.2850    0.2310   -0.2340 C   0  0  0  0  0  0  0  0  0  0  0  0
   -0.4450    1.2290   -0.7210 C   0  0  0  0  0  0  0  0  0  0  0  0
    0.9200    1.0450   -0.7050 C   0  0  0  0  0  0  0  0  0  0  0  0
   -1.7950   -1.7840    0.6920 N   0  0  0  0  0  0  0  0  0  0  0  0
   -2.9890   -1.2020    0.4890 C   0  0  0  0  0  0  0  0  0  0  0  0
   -2.7550    0.1180   -0.1120 C   0  0  0  0  0  0  0  0  0  0  0  0
   -4.0750   -1.6830    0.7570 O   0  0  0  0  0  0  0  0  0  0  0  0
   -3.7040    1.0520   -0.4840 C   0  0  0  0  0  0  0  0  0  0  0  0
   -5.0740    0.7800   -0.2920 C   0  0  0  0  0  0  0  0  0  0  0  0
   -5.7920    0.9850    0.8670 N   0  0  0  0  0  0  0  0  0  0  0  0
   -7.0760    0.6010    0.6540 C   0  0  0  0  0  0  0  0  0  0  0  0
   -7.1970    0.1550   -0.6210 C   0  0  0  0  0  0  0  0  0  0  0  0
   -5.9490    0.2650   -1.2360 C   0  0  0  0  0  0  0  0  0  0  0  0
    3.3510    1.6890    0.3990 H   0  0  0  0  0  0  0  0  0  0  0  0
    2.8210   -2.4010   -0.7650 H   0  0  0  0  0  0  0  0  0  0  0  0
    5.2580   -2.7240   -0.7390 H   0  0  0  0  0  0  0  0  0  0  0  0
    7.3430   -0.6800   -1.0390 H   0  0  0  0  0  0  0  0  0  0  0  0
    5.7450    3.5520    1.0310 H   0  0  0  0  0  0  0  0  0  0  0  0
    4.5380    2.9350   -0.1230 H   0  0  0  0  0  0  0  0  0  0  0  0
    4.4560    2.4590    1.5900 H   0  0  0  0  0  0  0  0  0  0  0  0
    1.0450   -2.0580    0.6710 H   0  0  0  0  0  0  0  0  0  0  0  0
   -0.8620    2.1460   -1.1110 H   0  0  0  0  0  0  0  0  0  0  0  0
    1.5740    1.8170   -1.0820 H   0  0  0  0  0  0  0  0  0  0  0  0
   -1.6760   -2.6650    1.0800 H   0  0  0  0  0  0  0  0  0  0  0  0
   -3.3950    1.9900   -0.9220 H   0  0  0  0  0  0  0  0  0  0  0  0
   -5.4380    1.3430    1.6960 H   0  0  0  0  0  0  0  0  0  0  0  0
   -7.8720    0.6450    1.3820 H   0  0  0  0  0  0  0  0  0  0  0  0
   -8.1010   -0.2160   -1.0810 H   0  0  0  0  0  0  0  0  0  0  0  0
   -5.7080   -0.0070   -2.2530 H   0  0  0  0  0  0  0  0  0  0  0  0
  1  2  1  0  0  0  0
  1  6  2  0  0  0  0
  1  7  1  0  0  0  0
  2  3  2  0  0  0  0
  2  8  1  0  0  0  0
  3  4  1  0  0  0  0
  3 26  1  0  0  0  0
  4  5  2  0  0  0  0
  4 10  1  0  0  0  0
  5  6  1  0  0  0  0
  5 27  1  0  0  0  0
  6 28  1  0  0  0  0
  7 29  1  0  0  0  0
  8  9  1  0  0  0  0
  9 30  1  0  0  0  0
  9 31  1  0  0  0  0
  9 32  1  0  0  0  0
 10 11  2  0  0  0  0
 10 15  1  0  0  0  0
 11 12  1  0  0  0  0
 11 33  1  0  0  0  0
 12 13  2  0  0  0  0
 12 16  1  0  0  0  0
 13 14  1  0  0  0  0
 13 18  1  0  0  0  0
 14 15  2  0  0  0  0
 14 34  1  0  0  0  0
 15 35  1  0  0  0  0
 16 17  1  0  0  0  0
 16 36  1  0  0  0  0
 17 18  1  0  0  0  0
 17 19  2  0  0  0  0
 18 20  2  0  0  0  0
 20 21  1  0  0  0  0
 20 37  1  0  0  0  0
 21 22  1  0  0  0  0
 21 25  2  0  0  0  0
 22 23  1  0  0  0  0
 22 38  1  0  0  0  0
 23 24  2  0  0  0  0
 23 39  1  0  0  0  0
 24 25  1  0  0  0  0
 24 40  1  0  0  0  0
 25 41  1  0  0  0  0
M  END
> <OPENEYE_ISO_SMILES>
COc1cc(ccc1O)c2ccc\3c(c2)NC(=O)/C3=C\c4ccc[nH]4

> <OPENEYE_INCHI>
InChI=1S/C20H16N2O3/c1-25-19-10-13(5-7-18(19)23)12-4-6-15-16(11-14-3-2-8-21-14)20(24)22-17(15)9-12/h2-11,21,23H,1H3,(H,22,24)/b16-11-

> <OPENEYE_INCHIKEY>
AYSXURJZVXBSRV-WJDWOHSUSA-N

> <FORMULA>
C20H16N2O3

$$$$
