@<TRIPOS>MOLECULE
43A
 41 44 0 0 0
SMALL
GASTEIGER

@<TRIPOS>ATOM
      1 C           5.6770   -0.7040   -0.1630 C.ar    1  LIG1        0.1585
      2 C           5.1400    0.5380    0.1630 C.ar    1  LIG1        0.1618
      3 C           3.7690    0.7240    0.1500 C.ar    1  LIG1       -0.0086
      4 C           2.9280   -0.3360   -0.1850 C.ar    1  LIG1       -0.0141
      5 C           3.4710   -1.5790   -0.5050 C.ar    1  LIG1       -0.0503
      6 C           4.8390   -1.7600   -0.4910 C.ar    1  LIG1       -0.0159
      7 O           7.0240   -0.8860   -0.1500 O.3     1  LIG1       -0.5033
      8 O           5.9630    1.5710    0.4900 O.3     1  LIG1       -0.4914
      9 C           5.1260    2.6960    0.7630 C.3     1  LIG1        0.0790
     10 C           1.4580   -0.1410   -0.2010 C.ar    1  LIG1       -0.0160
     11 C           0.6220   -1.1430    0.2830 C.ar    1  LIG1       -0.0322
     12 C          -0.7540   -0.9630    0.2750 C.ar    1  LIG1        0.0421
     13 C          -1.2850    0.2310   -0.2340 C.ar    1  LIG1        0.0084
     14 C          -0.4450    1.2290   -0.7210 C.ar    1  LIG1       -0.0515
     15 C           0.9200    1.0450   -0.7050 C.ar    1  LIG1       -0.0533
     16 N          -1.7950   -1.7840    0.6920 N.am    1  LIG1       -0.2809
     17 C          -2.9890   -1.2020    0.4890 C.2     1  LIG1        0.2490
     18 C          -2.7550    0.1180   -0.1120 C.2     1  LIG1        0.0479
     19 O          -4.0750   -1.6830    0.7570 O.2     1  LIG1       -0.2698
     20 C          -3.7040    1.0520   -0.4840 C.2     1  LIG1       -0.0256
     21 C          -5.0740    0.7800   -0.2920 C.ar    1  LIG1        0.0400
     22 N          -5.7920    0.9850    0.8670 N.ar    1  LIG1       -0.3611
     23 C          -7.0760    0.6010    0.6540 C.ar    1  LIG1        0.0022
     24 C          -7.1970    0.1550   -0.6210 C.ar    1  LIG1       -0.0438
     25 C          -5.9490    0.2650   -1.2360 C.ar    1  LIG1       -0.0370
     26 H           3.3510    1.6890    0.3990 H       1  LIG1        0.0661
     27 H           2.8210   -2.4010   -0.7650 H       1  LIG1        0.0625
     28 H           5.2580   -2.7240   -0.7390 H       1  LIG1        0.0655
     29 H           7.3430   -0.6800   -1.0390 H       1  LIG1        0.2923
     30 H           5.7450    3.5520    1.0310 H       1  LIG1        0.0660
     31 H           4.5380    2.9350   -0.1230 H       1  LIG1        0.0660
     32 H           4.4560    2.4590    1.5900 H       1  LIG1        0.0660
     33 H           1.0450   -2.0580    0.6710 H       1  LIG1        0.0642
     34 H          -0.8620    2.1460   -1.1110 H       1  LIG1        0.0624
     35 H           1.5740    1.8170   -1.0820 H       1  LIG1        0.0624
     36 H          -1.6760   -2.6650    1.0800 H       1  LIG1        0.1552
     37 H          -3.3950    1.9900   -0.9220 H       1  LIG1        0.0646
     38 H          -5.4380    1.3430    1.6960 H       1  LIG1        0.1653
     39 H          -7.8720    0.6450    1.3820 H       1  LIG1        0.0807
     40 H          -8.1010   -0.2160   -1.0810 H       1  LIG1        0.0633
     41 H          -5.7080   -0.0070   -2.2530 H       1  LIG1        0.0638
@<TRIPOS>BOND
     1     1     2   ar
     2     1     6   ar
     3     1     7    1
     4     2     3   ar
     5     2     8    1
     6     3     4   ar
     7     3    26    1
     8     4     5   ar
     9     4    10    1
    10     5     6   ar
    11     5    27    1
    12     6    28    1
    13     7    29    1
    14     8     9    1
    15     9    30    1
    16     9    31    1
    17     9    32    1
    18    10    11   ar
    19    10    15   ar
    20    11    12   ar
    21    11    33    1
    22    12    13   ar
    23    12    16    1
    24    13    14   ar
    25    13    18    1
    26    14    15   ar
    27    14    34    1
    28    15    35    1
    29    16    17   am
    30    16    36    1
    31    17    18    1
    32    17    19    2
    33    18    20    2
    34    20    21    1
    35    20    37    1
    36    21    22   ar
    37    21    25   ar
    38    22    23   ar
    39    22    38    1
    40    23    24   ar
    41    23    39    1
    42    24    25   ar
    43    24    40    1
    44    25    41    1
