43A
  Mrv15b2303062313512D          

 26 29  0  0  0  0            999 V2000
    3.0537   -1.3501    0.0000 C   0  0  0  0  0  0  0  0  0  0  0  0
    2.3393   -1.7626    0.0000 C   0  0  0  0  0  0  0  0  0  0  0  0
    1.6248   -1.3501    0.0000 C   0  0  0  0  0  0  0  0  0  0  0  0
    1.6248   -0.5251    0.0000 C   0  0  0  0  0  0  0  0  0  0  0  0
    2.3393   -0.1126    0.0000 C   0  0  0  0  0  0  0  0  0  0  0  0
    3.0537   -0.5251    0.0000 C   0  0  0  0  0  0  0  0  0  0  0  0
    3.7682   -1.7626    0.0000 O   0  5  0  0  0  0  0  0  0  0  0  0
    2.3393   -2.5876    0.0000 O   0  0  0  0  0  0  0  0  0  0  0  0
    1.6248   -3.0001    0.0000 C   0  0  0  0  0  0  0  0  0  0  0  0
    0.9103   -0.1126    0.0000 C   0  0  0  0  0  0  0  0  0  0  0  0
    0.1959   -0.5251    0.0000 C   0  0  0  0  0  0  0  0  0  0  0  0
   -0.5186   -0.1126    0.0000 C   0  0  0  0  0  0  0  0  0  0  0  0
   -0.5186    0.7124    0.0000 C   0  0  0  0  0  0  0  0  0  0  0  0
    0.1959    1.1249    0.0000 C   0  0  0  0  0  0  0  0  0  0  0  0
    0.9103    0.7124    0.0000 C   0  0  0  0  0  0  0  0  0  0  0  0
   -1.3032   -0.3676    0.0000 N   0  0  0  0  0  0  0  0  0  0  0  0
   -1.7882    0.2999    0.0000 C   0  0  0  0  0  0  0  0  0  0  0  0
   -1.3032    0.9673    0.0000 C   0  0  0  0  0  0  0  0  0  0  0  0
   -2.6132    0.2999    0.0000 O   0  0  0  0  0  0  0  0  0  0  0  0
   -1.5582    1.7519    0.0000 C   0  0  0  0  0  0  0  0  0  0  0  0
   -2.3651    1.9234    0.0000 C   0  0  0  0  0  0  0  0  0  0  0  0
   -2.9782    1.3714    0.0000 N   0  0  0  0  0  0  0  0  0  0  0  0
   -3.6927    1.7839    0.0000 C   0  0  0  0  0  0  0  0  0  0  0  0
   -3.5212    2.5909    0.0000 C   0  0  0  0  0  0  0  0  0  0  0  0
   -2.7007    2.6771    0.0000 C   0  0  0  0  0  0  0  0  0  0  0  0
    3.7682   -2.5876    0.0000 H   0  0  0  0  0  0  0  0  0  0  0  0
  1  2  4  0  0  0  0
  1  6  4  0  0  0  0
  1  7  1  0  0  0  0
  2  3  4  0  0  0  0
  2  8  1  0  0  0  0
  3  4  4  0  0  0  0
  4  5  4  0  0  0  0
  4 10  1  0  0  0  0
  5  6  4  0  0  0  0
  7 26  1  0  0  0  0
  8  9  1  0  0  0  0
 10 11  4  0  0  0  0
 10 15  4  0  0  0  0
 11 12  4  0  0  0  0
 12 13  4  0  0  0  0
 12 16  1  0  0  0  0
 13 14  4  0  0  0  0
 13 18  1  0  0  0  0
 14 15  4  0  0  0  0
 16 17  1  0  0  0  0
 17 18  1  0  0  0  0
 17 19  2  0  0  0  0
 18 20  2  0  0  0  0
 20 21  1  0  0  0  0
 21 22  4  0  0  0  0
 21 25  4  0  0  0  0
 22 23  4  0  0  0  0
 23 24  4  0  0  0  0
 24 25  4  0  0  0  0
M  CHG  1   7  -1
M  STY  1   1 DAT
M  SAL   1  1  22
M  SDT   1 MRV_IMPLICIT_H                                        
M  SDD   1     0.0000    0.0000    DR    ALL  0       0  
M  SED   1 IMPL_H1
M  END
