@<TRIPOS>MOLECULE
4GF
 66 71 0 0 0
SMALL
GASTEIGER

@<TRIPOS>ATOM
      1 C          29.7090   12.2630   -8.5120 C.ar    1  UNL1        0.1291
      2 C          29.2220   13.4360   -7.9630 C.ar    1  UNL1        0.0018
      3 C          28.7720   13.0980   -6.6460 C.ar    1  UNL1        0.0685
      4 N          28.9900   11.7770   -6.3720 N.ar    1  UNL1       -0.1693
      5 N          29.5350   11.2800   -7.5340 N.ar    1  UNL1       -0.2153
      6 N          30.3050   11.9120   -9.7290 N.am    1  UNL1       -0.2661
      7 C          31.6360   11.9550  -10.0390 C.2     1  UNL1        0.2544
      8 O          32.5220   12.1180   -9.2010 O.2     1  UNL1       -0.2696
      9 C          31.9510   11.8190  -11.4630 C.ar    1  UNL1        0.1008
     10 C          31.4340   12.7130  -12.4490 C.ar    1  UNL1        0.0641
     11 N          31.7840   12.3740  -13.7020 N.ar    1  UNL1       -0.1726
     12 N          32.6140   11.2800  -13.5590 N.ar    1  UNL1       -0.2210
     13 C          32.7700   10.9100  -12.1600 C.ar    1  UNL1        0.1676
     14 C          33.2490   10.5250  -14.5780 C.ar    1  UNL1        0.0329
     15 N          33.5290    9.7770  -11.8070 N.ar    1  UNL1       -0.2354
     16 C          34.1130    9.0900  -12.8300 C.ar    1  UNL1        0.0314
     17 C          34.0180    9.4390  -14.1650 C.ar    1  UNL1       -0.0253
     18 C          29.8730    9.9000   -7.6240 C.ar    1  UNL1        0.1025
     19 C          30.1600    9.1140   -6.4960 C.ar    1  UNL1        0.1490
     20 C          30.3910    7.7650   -6.5560 C.ar    1  UNL1       -0.0209
     21 F          30.2400    9.7290   -5.2980 F       1  UNL1       -0.2033
     22 C          30.2950    7.1200   -7.7870 C.ar    1  UNL1       -0.0414
     23 C          29.9790    7.8680   -8.9170 C.ar    1  UNL1       -0.0561
     24 C          29.7310    9.2300   -8.8380 C.ar    1  UNL1       -0.0331
     25 C          30.5370    5.6270   -7.9040 C.3     1  UNL1       -0.0157
     26 C          31.5430    5.0560   -8.8700 C.3     1  UNL1       -0.0457
     27 C          30.1000    4.9800   -9.1910 C.3     1  UNL1       -0.0457
     28 C          28.2050   14.0080   -5.6010 C.3     1  UNL1        0.0055
     29 C          27.6570   13.2780   -4.3680 C.3     1  UNL1       -0.0318
     30 C          27.1170   14.3040   -3.3770 C.3     1  UNL1       -0.0003
     31 N          28.1760   15.2260   -2.9350 N.3     1  UNL1       -0.2999
     32 C          28.6340   15.9780   -4.1160 C.3     1  UNL1       -0.0003
     33 C          29.2450   15.0510   -5.1650 C.3     1  UNL1       -0.0318
     34 C          27.7830   16.0930   -1.8040 C.3     1  UNL1        0.0048
     35 C          28.0390   15.4440   -0.4460 C.3     1  UNL1       -0.0497
     36 C          26.3440   16.5850   -1.9320 C.3     1  UNL1       -0.0497
     37 H          29.1875   14.4263   -8.4407 H       1  UNL1        0.0671
     38 H          29.6714   11.5855  -10.4725 H       1  UNL1        0.1566
     39 H          30.8134   13.5887  -12.2082 H       1  UNL1        0.0856
     40 H          33.1398   10.7840  -15.6415 H       1  UNL1        0.0831
     41 H          34.7008    8.1957  -12.5757 H       1  UNL1        0.0831
     42 H          34.5609    8.8468  -14.9164 H       1  UNL1        0.0648
     43 H          30.6480    7.2006   -5.6474 H       1  UNL1        0.0650
     44 H          29.9247    7.3675   -9.8951 H       1  UNL1        0.0621
     45 H          29.4211    9.7837   -9.7366 H       1  UNL1        0.0640
     46 H          30.3714    5.4935   -6.8248 H       1  UNL1        0.0349
     47 H          32.1976    5.7297   -9.4424 H       1  UNL1        0.0271
     48 H          32.3597    4.3230   -8.7950 H       1  UNL1        0.0271
     49 H          29.6855    5.5971  -10.0017 H       1  UNL1        0.0271
     50 H          29.4069    4.1668   -9.4522 H       1  UNL1        0.0271
     51 H          27.3478   14.5046   -6.0791 H       1  UNL1        0.0365
     52 H          26.8471   12.5987   -4.6723 H       1  UNL1        0.0284
     53 H          28.4615   12.6953   -3.8954 H       1  UNL1        0.0284
     54 H          26.3162   14.8828   -3.8604 H       1  UNL1        0.0427
     55 H          26.7316   13.7686   -2.4967 H       1  UNL1        0.0427
     56 H          27.7761   16.5044   -4.5598 H       1  UNL1        0.0427
     57 H          29.4061   16.6921   -3.7935 H       1  UNL1        0.0427
     58 H          30.1191   14.5390   -4.7362 H       1  UNL1        0.0284
     59 H          29.5561   15.6431   -6.0383 H       1  UNL1        0.0284
     60 H          28.4361   16.9766   -1.8560 H       1  UNL1        0.0457
     61 H          27.7620   16.1463    0.3541 H       1  UNL1        0.0245
     62 H          27.4342   14.5295   -0.3568 H       1  UNL1        0.0245
     63 H          29.1052   15.1886   -0.3568 H       1  UNL1        0.0245
     64 H          25.9160   16.7313   -0.9293 H       1  UNL1        0.0245
     65 H          26.3300   17.5390   -2.4795 H       1  UNL1        0.0245
     66 H          25.7489   15.8393   -2.4795 H       1  UNL1        0.0245
@<TRIPOS>BOND
     1     2     1   ar
     2     3     2   ar
     3     4     3   ar
     4     5     4   ar
     5     5     1   ar
     6     6     1    1
     7     7     6   am
     8     8     7    2
     9     9     7    1
    10    10     9   ar
    11    11    10   ar
    12    12    11   ar
    13    13    12   ar
    14    13     9   ar
    15    14    12   ar
    16    15    13   ar
    17    16    15   ar
    18    17    16   ar
    19    17    14   ar
    20    18     5    1
    21    19    18   ar
    22    20    19   ar
    23    21    19    1
    24    22    20   ar
    25    23    22   ar
    26    24    23   ar
    27    24    18   ar
    28    25    22    1
    29    26    25    1
    30    27    26    1
    31    27    25    1
    32    28     3    1
    33    29    28    1
    34    30    29    1
    35    31    30    1
    36    32    31    1
    37    33    28    1
    38    33    32    1
    39    34    31    1
    40    35    34    1
    41    36    34    1
    42     2    37    1
    43     6    38    1
    44    10    39    1
    45    14    40    1
    46    16    41    1
    47    17    42    1
    48    20    43    1
    49    23    44    1
    50    24    45    1
    51    25    46    1
    52    26    47    1
    53    26    48    1
    54    27    49    1
    55    27    50    1
    56    28    51    1
    57    29    52    1
    58    29    53    1
    59    30    54    1
    60    30    55    1
    61    32    56    1
    62    32    57    1
    63    33    58    1
    64    33    59    1
    65    34    60    1
    66    35    61    1
    67    35    62    1
    68    35    63    1
    69    36    64    1
    70    36    65    1
    71    36    66    1
