@<TRIPOS>MOLECULE
984
 63 67 0 0 0
SMALL
GASTEIGER

@<TRIPOS>ATOM
      1 N          25.3910   12.1860   29.9060 N.ar    1  UNL1       -0.3256
      2 C          25.8860   10.9900   29.5020 C.ar    1  UNL1        0.1140
      3 N          25.1090    9.9190   29.9000 N.ar    1  UNL1       -0.2313
      4 C          23.9430   10.3950   30.6590 C.ar    1  UNL1        0.0986
      5 C          24.0970   11.8790   30.6680 C.ar    1  UNL1        0.0952
      6 C          23.4460   13.0920   31.3200 C.ar    1  UNL1        0.0945
      7 C          24.3090   14.1450   31.7290 C.ar    1  UNL1       -0.0159
      8 C          23.6880   15.2450   32.3670 C.ar    1  UNL1        0.0333
      9 N          22.3600   15.2820   32.5960 N.ar    1  UNL1       -0.2229
     10 C          21.6470   14.2240   32.1860 C.ar    1  UNL1        0.2159
     11 N          22.1430   13.1530   31.5670 N.ar    1  UNL1       -0.2129
     12 N          20.3100   14.1820   32.3960 N.pl3   1  UNL1       -0.3106
     13 C          19.6480   12.9980   32.9010 C.3     1  UNL1        0.0234
     14 C          18.4860   13.8890   33.3290 C.3     1  UNL1       -0.0328
     15 C          19.2540   13.0460   34.2980 C.3     1  UNL1       -0.0328
     16 C          26.0590   13.4710   29.5930 C.3     1  UNL1        0.0248
     17 C          25.7600   13.9730   28.1850 C.3     1  UNL1       -0.0378
     18 C          24.5020   14.8330   28.0930 C.3     1  UNL1       -0.0637
     19 C          22.8940    9.4800   31.1980 C.ar    1  UNL1        0.0040
     20 C          22.0420    9.8970   32.2470 C.ar    1  UNL1       -0.0327
     21 C          21.0660    9.0590   32.7850 C.ar    1  UNL1        0.0599
     22 CL         20.1160    9.7190   34.0480 Cl      1  UNL1       -0.0820
     23 C          20.9250    7.7320   32.2990 C.ar    1  UNL1        0.0593
     24 CL         19.7610    6.6250   32.9380 Cl      1  UNL1       -0.0820
     25 C          21.7640    7.2830   31.2300 C.ar    1  UNL1       -0.0413
     26 C          22.7640    8.1700   30.6830 C.ar    1  UNL1       -0.0510
     27 C          26.9450   10.6420   28.8370 C.3     1  UNL1        0.0196
     28 C          28.3150   10.9520   29.5320 C.3     1  UNL1       -0.0305
     29 C          29.5570   10.5190   28.6730 C.3     1  UNL1       -0.0008
     30 N          29.4700    9.0880   28.2370 N.3     1  UNL1       -0.3053
     31 C          28.2140    8.7950   27.5170 C.3     1  UNL1       -0.0008
     32 C          30.6460    8.7220   27.4070 C.3     1  UNL1       -0.0128
     33 C          26.9360    9.1620   28.3470 C.3     1  UNL1       -0.0305
     34 H          25.3952   14.1070   31.5596 H       1  UNL1        0.0655
     35 H          24.3079   16.0959   32.6858 H       1  UNL1        0.0831
     36 H          19.7462   15.0190   32.1899 H       1  UNL1        0.1492
     37 H          20.0026   12.1141   32.3506 H       1  UNL1        0.0498
     38 H          18.5958   14.9835   33.3340 H       1  UNL1        0.0284
     39 H          17.4301   14.0060   33.0437 H       1  UNL1        0.0284
     40 H          19.9152   13.5283   35.0330 H       1  UNL1        0.0284
     41 H          18.9713   12.2836   35.0388 H       1  UNL1        0.0284
     42 H          25.7175   14.2279   30.3144 H       1  UNL1        0.0492
     43 H          27.1439   13.3008   29.6571 H       1  UNL1        0.0492
     44 H          26.6160   14.5722   27.8411 H       1  UNL1        0.0280
     45 H          25.5888   13.0858   27.5576 H       1  UNL1        0.0280
     46 H          24.1483   15.0748   29.1061 H       1  UNL1        0.0230
     47 H          24.7325   15.7634   27.5533 H       1  UNL1        0.0230
     48 H          23.7188   14.2805   27.5533 H       1  UNL1        0.0230
     49 H          22.1527   10.9141   32.6511 H       1  UNL1        0.0639
     50 H          21.6477    6.2663   30.8265 H       1  UNL1        0.0633
     51 H          23.4211    7.8279   29.8698 H       1  UNL1        0.0625
     52 H          26.8732   11.3026   27.9604 H       1  UNL1        0.0380
     53 H          28.3770   12.0349   29.7150 H       1  UNL1        0.0284
     54 H          28.3459   10.3724   30.4664 H       1  UNL1        0.0284
     55 H          29.6111   11.1591   27.7801 H       1  UNL1        0.0427
     56 H          30.4556   10.6285   29.2979 H       1  UNL1        0.0427
     57 H          28.2028    9.3729   26.5811 H       1  UNL1        0.0427
     58 H          28.1860    7.7115   27.3290 H       1  UNL1        0.0427
     59 H          31.4897    8.4594   28.0621 H       1  UNL1        0.0391
     60 H          30.3927    7.8602   26.7721 H       1  UNL1        0.0391
     61 H          30.9265    9.5753   26.7721 H       1  UNL1        0.0391
     62 H          26.8836    8.5006   29.2244 H       1  UNL1        0.0284
     63 H          26.0633    9.0335   27.6899 H       1  UNL1        0.0284
@<TRIPOS>BOND
     1     2     1   ar
     2     3     2   ar
     3     4     3   ar
     4     5     4   ar
     5     5     1   ar
     6     6     5    1
     7     7     6   ar
     8     8     7   ar
     9     9     8   ar
    10    10     9   ar
    11    11    10   ar
    12    11     6   ar
    13    12    10    1
    14    13    12    1
    15    14    13    1
    16    15    14    1
    17    15    13    1
    18    16     1    1
    19    17    16    1
    20    18    17    1
    21    19     4    1
    22    20    19   ar
    23    21    20   ar
    24    22    21    1
    25    23    21   ar
    26    24    23    1
    27    25    23   ar
    28    26    25   ar
    29    26    19   ar
    30    27     2    1
    31    28    27    1
    32    29    28    1
    33    30    29    1
    34    31    30    1
    35    32    30    1
    36    33    27    1
    37    33    31    1
    38     7    34    1
    39     8    35    1
    40    12    36    1
    41    13    37    1
    42    14    38    1
    43    14    39    1
    44    15    40    1
    45    15    41    1
    46    16    42    1
    47    16    43    1
    48    17    44    1
    49    17    45    1
    50    18    46    1
    51    18    47    1
    52    18    48    1
    53    20    49    1
    54    25    50    1
    55    26    51    1
    56    27    52    1
    57    28    53    1
    58    28    54    1
    59    29    55    1
    60    29    56    1
    61    31    57    1
    62    31    58    1
    63    32    59    1
    64    32    60    1
    65    32    61    1
    66    33    62    1
    67    33    63    1
