984
 OpenBabel09142215213D

 63 67  0  0  0  0  0  0  0  0999 V2000
   25.3910   12.1860   29.9060 N   0  0  0  0  0  0  0  0  0  0  0  0
   25.8860   10.9900   29.5020 C   0  0  0  0  0  0  0  0  0  0  0  0
   25.1090    9.9190   29.9000 N   0  0  0  0  0  0  0  0  0  0  0  0
   23.9430   10.3950   30.6590 C   0  0  0  0  0  0  0  0  0  0  0  0
   24.0970   11.8790   30.6680 C   0  0  0  0  0  0  0  0  0  0  0  0
   23.4460   13.0920   31.3200 C   0  0  0  0  0  0  0  0  0  0  0  0
   24.3090   14.1450   31.7290 C   0  0  0  0  0  0  0  0  0  0  0  0
   23.6880   15.2450   32.3670 C   0  0  0  0  0  0  0  0  0  0  0  0
   22.3600   15.2820   32.5960 N   0  0  0  0  0  0  0  0  0  0  0  0
   21.6470   14.2240   32.1860 C   0  0  0  0  0  0  0  0  0  0  0  0
   22.1430   13.1530   31.5670 N   0  0  0  0  0  0  0  0  0  0  0  0
   20.3100   14.1820   32.3960 N   0  0  0  0  0  0  0  0  0  0  0  0
   19.6480   12.9980   32.9010 C   0  0  0  0  0  0  0  0  0  0  0  0
   18.4860   13.8890   33.3290 C   0  0  0  0  0  0  0  0  0  0  0  0
   19.2540   13.0460   34.2980 C   0  0  0  0  0  0  0  0  0  0  0  0
   26.0590   13.4710   29.5930 C   0  0  0  0  0  0  0  0  0  0  0  0
   25.7600   13.9730   28.1850 C   0  0  0  0  0  0  0  0  0  0  0  0
   24.5020   14.8330   28.0930 C   0  0  0  0  0  0  0  0  0  0  0  0
   22.8940    9.4800   31.1980 C   0  0  0  0  0  0  0  0  0  0  0  0
   22.0420    9.8970   32.2470 C   0  0  0  0  0  0  0  0  0  0  0  0
   21.0660    9.0590   32.7850 C   0  0  0  0  0  0  0  0  0  0  0  0
   20.1160    9.7190   34.0480 Cl  0  0  0  0  0  0  0  0  0  0  0  0
   20.9250    7.7320   32.2990 C   0  0  0  0  0  0  0  0  0  0  0  0
   19.7610    6.6250   32.9380 Cl  0  0  0  0  0  0  0  0  0  0  0  0
   21.7640    7.2830   31.2300 C   0  0  0  0  0  0  0  0  0  0  0  0
   22.7640    8.1700   30.6830 C   0  0  0  0  0  0  0  0  0  0  0  0
   26.9450   10.6420   28.8370 C   0  0  0  0  0  0  0  0  0  0  0  0
   28.3150   10.9520   29.5320 C   0  0  0  0  0  0  0  0  0  0  0  0
   29.5570   10.5190   28.6730 C   0  0  0  0  0  0  0  0  0  0  0  0
   29.4700    9.0880   28.2370 N   0  0  0  0  0  0  0  0  0  0  0  0
   28.2140    8.7950   27.5170 C   0  0  0  0  0  0  0  0  0  0  0  0
   30.6460    8.7220   27.4070 C   0  0  0  0  0  0  0  0  0  0  0  0
   26.9360    9.1620   28.3470 C   0  0  0  0  0  0  0  0  0  0  0  0
   25.3952   14.1070   31.5596 H   0  0  0  0  0  0  0  0  0  0  0  0
   24.3079   16.0959   32.6858 H   0  0  0  0  0  0  0  0  0  0  0  0
   19.7462   15.0190   32.1899 H   0  0  0  0  0  0  0  0  0  0  0  0
   20.0026   12.1141   32.3506 H   0  0  0  0  0  0  0  0  0  0  0  0
   18.5958   14.9835   33.3340 H   0  0  0  0  0  0  0  0  0  0  0  0
   17.4301   14.0060   33.0437 H   0  0  0  0  0  0  0  0  0  0  0  0
   19.9152   13.5283   35.0330 H   0  0  0  0  0  0  0  0  0  0  0  0
   18.9713   12.2836   35.0388 H   0  0  0  0  0  0  0  0  0  0  0  0
   25.7175   14.2279   30.3144 H   0  0  0  0  0  0  0  0  0  0  0  0
   27.1439   13.3008   29.6571 H   0  0  0  0  0  0  0  0  0  0  0  0
   26.6160   14.5722   27.8411 H   0  0  0  0  0  0  0  0  0  0  0  0
   25.5888   13.0858   27.5576 H   0  0  0  0  0  0  0  0  0  0  0  0
   24.1483   15.0748   29.1061 H   0  0  0  0  0  0  0  0  0  0  0  0
   24.7325   15.7634   27.5533 H   0  0  0  0  0  0  0  0  0  0  0  0
   23.7188   14.2805   27.5533 H   0  0  0  0  0  0  0  0  0  0  0  0
   22.1527   10.9141   32.6511 H   0  0  0  0  0  0  0  0  0  0  0  0
   21.6477    6.2663   30.8265 H   0  0  0  0  0  0  0  0  0  0  0  0
   23.4211    7.8279   29.8698 H   0  0  0  0  0  0  0  0  0  0  0  0
   26.8732   11.3026   27.9604 H   0  0  0  0  0  0  0  0  0  0  0  0
   28.3770   12.0349   29.7150 H   0  0  0  0  0  0  0  0  0  0  0  0
   28.3459   10.3724   30.4664 H   0  0  0  0  0  0  0  0  0  0  0  0
   29.6111   11.1591   27.7801 H   0  0  0  0  0  0  0  0  0  0  0  0
   30.4556   10.6285   29.2979 H   0  0  0  0  0  0  0  0  0  0  0  0
   28.2028    9.3729   26.5811 H   0  0  0  0  0  0  0  0  0  0  0  0
   28.1860    7.7115   27.3290 H   0  0  0  0  0  0  0  0  0  0  0  0
   31.4897    8.4594   28.0621 H   0  0  0  0  0  0  0  0  0  0  0  0
   30.3927    7.8602   26.7721 H   0  0  0  0  0  0  0  0  0  0  0  0
   30.9265    9.5753   26.7721 H   0  0  0  0  0  0  0  0  0  0  0  0
   26.8836    8.5006   29.2244 H   0  0  0  0  0  0  0  0  0  0  0  0
   26.0633    9.0335   27.6899 H   0  0  0  0  0  0  0  0  0  0  0  0
  2  1  1  0  0  0  0
  3  2  2  0  0  0  0
  4  3  1  0  0  0  0
  5  4  2  0  0  0  0
  5  1  1  0  0  0  0
  6  5  1  0  0  0  0
  7  6  2  0  0  0  0
  7 34  1  0  0  0  0
  8  7  1  0  0  0  0
  8 35  1  0  0  0  0
  9  8  2  0  0  0  0
 10  9  1  0  0  0  0
 11 10  2  0  0  0  0
 11  6  1  0  0  0  0
 12 10  1  0  0  0  0
 12 36  1  0  0  0  0
 13 12  1  0  0  0  0
 13 37  1  0  0  0  0
 14 13  1  0  0  0  0
 14 38  1  0  0  0  0
 14 39  1  0  0  0  0
 15 14  1  0  0  0  0
 15 13  1  0  0  0  0
 15 40  1  0  0  0  0
 15 41  1  0  0  0  0
 16  1  1  0  0  0  0
 16 42  1  0  0  0  0
 16 43  1  0  0  0  0
 17 16  1  0  0  0  0
 17 44  1  0  0  0  0
 17 45  1  0  0  0  0
 18 17  1  0  0  0  0
 18 46  1  0  0  0  0
 18 47  1  0  0  0  0
 18 48  1  0  0  0  0
 19  4  1  0  0  0  0
 20 19  2  0  0  0  0
 20 49  1  0  0  0  0
 21 20  1  0  0  0  0
 22 21  1  0  0  0  0
 23 21  2  0  0  0  0
 24 23  1  0  0  0  0
 25 23  1  0  0  0  0
 25 50  1  0  0  0  0
 26 25  2  0  0  0  0
 26 19  1  0  0  0  0
 26 51  1  0  0  0  0
 27  2  1  0  0  0  0
 27 52  1  0  0  0  0
 28 27  1  0  0  0  0
 28 53  1  0  0  0  0
 28 54  1  0  0  0  0
 29 28  1  0  0  0  0
 29 55  1  0  0  0  0
 29 56  1  0  0  0  0
 30 29  1  0  0  0  0
 31 30  1  0  0  0  0
 31 57  1  0  0  0  0
 31 58  1  0  0  0  0
 32 30  1  0  0  0  0
 32 59  1  0  0  0  0
 32 60  1  0  0  0  0
 32 61  1  0  0  0  0
 33 27  1  0  0  0  0
 33 31  1  0  0  0  0
 33 62  1  0  0  0  0
 33 63  1  0  0  0  0
M  END
$$$$
