F8A
  -OEChem-02242319233D

 45 48  0     0  0  0  0  0  0999 V2000
    2.3950   -1.1120    2.6450 F   0  0  0  0  0  0  0  0  0  0  0  0
    1.5210   -1.1920    1.5550 C   0  0  0  0  0  0  0  0  0  0  0  0
    0.9420   -2.4640    1.5140 F   0  0  0  0  0  0  0  0  0  0  0  0
    0.5180   -0.2260    1.6890 F   0  0  0  0  0  0  0  0  0  0  0  0
    2.2860   -0.9470    0.2790 C   0  0  0  0  0  0  0  0  0  0  0  0
    3.6570   -0.7740    0.3180 C   0  0  0  0  0  0  0  0  0  0  0  0
    4.3590   -0.5490   -0.8520 C   0  0  0  0  0  0  0  0  0  0  0  0
    3.6900   -0.4980   -2.0600 C   0  0  0  0  0  0  0  0  0  0  0  0
    2.3190   -0.6720   -2.0990 C   0  0  0  0  0  0  0  0  0  0  0  0
    1.6180   -0.9010   -0.9300 C   0  0  0  0  0  0  0  0  0  0  0  0
    0.1240   -1.0960   -0.9730 C   0  0  0  0  0  0  0  0  0  0  0  0
   -0.5420    0.1380   -0.5470 N   0  0  0  0  0  0  0  0  0  0  0  0
    0.0760    1.3500   -0.3830 C   0  0  0  0  0  0  0  0  0  0  0  0
    1.5400    1.6510   -0.6040 C   0  0  0  0  0  0  0  0  0  0  0  0
    1.7160    3.1690   -0.7200 C   0  0  0  0  0  0  0  0  0  0  0  0
    1.0160    3.8540    0.4560 C   0  0  0  0  0  0  0  0  0  0  0  0
   -0.5020    3.7170    0.2930 C   0  0  0  0  0  0  0  0  0  0  0  0
   -0.8260    2.2720    0.0150 C   0  0  0  0  0  0  0  0  0  0  0  0
   -1.8660    0.2520   -0.2620 C   0  0  0  0  0  0  0  0  0  0  0  0
   -2.1050    1.5990    0.1120 C   0  0  0  0  0  0  0  0  0  0  0  0
   -3.3820    2.0380    0.4720 C   0  0  0  0  0  0  0  0  0  0  0  0
   -4.4020    1.0990    0.4540 C   0  0  0  0  0  0  0  0  0  0  0  0
   -4.1830   -0.2160    0.0980 C   0  0  0  0  0  0  0  0  0  0  0  0
   -2.9180   -0.6830   -0.2800 C   0  0  0  0  0  0  0  0  0  0  0  0
   -2.6960   -2.0890   -0.6610 C   0  0  0  0  0  0  0  0  0  0  0  0
   -3.6800   -2.9960   -0.4970 O   0  0  0  0  0  0  0  0  0  0  0  0
   -1.6250   -2.4320   -1.1220 O   0  0  0  0  0  0  0  0  0  0  0  0
    4.1800   -0.8130    1.2620 H   0  0  0  0  0  0  0  0  0  0  0  0
    5.4300   -0.4130   -0.8220 H   0  0  0  0  0  0  0  0  0  0  0  0
    4.2380   -0.3220   -2.9740 H   0  0  0  0  0  0  0  0  0  0  0  0
    1.7960   -0.6320   -3.0430 H   0  0  0  0  0  0  0  0  0  0  0  0
   -0.1820   -1.3410   -1.9900 H   0  0  0  0  0  0  0  0  0  0  0  0
   -0.1560   -1.9090   -0.3030 H   0  0  0  0  0  0  0  0  0  0  0  0
    2.1220    1.2780    0.2390 H   0  0  0  0  0  0  0  0  0  0  0  0
    1.8770    1.1720   -1.5240 H   0  0  0  0  0  0  0  0  0  0  0  0
    2.7780    3.4140   -0.7050 H   0  0  0  0  0  0  0  0  0  0  0  0
    1.2770    3.5150   -1.6560 H   0  0  0  0  0  0  0  0  0  0  0  0
    1.3260    3.3820    1.3890 H   0  0  0  0  0  0  0  0  0  0  0  0
    1.2860    4.9100    0.4750 H   0  0  0  0  0  0  0  0  0  0  0  0
   -0.9990    4.0340    1.2110 H   0  0  0  0  0  0  0  0  0  0  0  0
   -0.8380    4.3380   -0.5380 H   0  0  0  0  0  0  0  0  0  0  0  0
   -3.5670    3.0640    0.7530 H   0  0  0  0  0  0  0  0  0  0  0  0
   -5.4000    1.4070    0.7280 H   0  0  0  0  0  0  0  0  0  0  0  0
   -5.0150   -0.9050    0.1020 H   0  0  0  0  0  0  0  0  0  0  0  0
   -3.4870   -3.9050   -0.7610 H   0  0  0  0  0  0  0  0  0  0  0  0
  1  2  1  0  0  0  0
  2  3  1  0  0  0  0
  2  4  1  0  0  0  0
  2  5  1  0  0  0  0
  5  6  2  0  0  0  0
  5 10  1  0  0  0  0
  6  7  1  0  0  0  0
  6 28  1  0  0  0  0
  7  8  2  0  0  0  0
  7 29  1  0  0  0  0
  8  9  1  0  0  0  0
  8 30  1  0  0  0  0
  9 10  2  0  0  0  0
  9 31  1  0  0  0  0
 10 11  1  0  0  0  0
 11 12  1  0  0  0  0
 11 32  1  0  0  0  0
 11 33  1  0  0  0  0
 12 13  1  0  0  0  0
 12 19  1  0  0  0  0
 13 14  1  0  0  0  0
 13 18  2  0  0  0  0
 14 15  1  0  0  0  0
 14 34  1  0  0  0  0
 14 35  1  0  0  0  0
 15 16  1  0  0  0  0
 15 36  1  0  0  0  0
 15 37  1  0  0  0  0
 16 17  1  0  0  0  0
 16 38  1  0  0  0  0
 16 39  1  0  0  0  0
 17 18  1  0  0  0  0
 17 40  1  0  0  0  0
 17 41  1  0  0  0  0
 18 20  1  0  0  0  0
 19 24  1  0  0  0  0
 19 20  2  0  0  0  0
 20 21  1  0  0  0  0
 21 22  2  0  0  0  0
 21 42  1  0  0  0  0
 22 23  1  0  0  0  0
 22 43  1  0  0  0  0
 23 24  2  0  0  0  0
 23 44  1  0  0  0  0
 24 25  1  0  0  0  0
 25 27  2  0  0  0  0
 25 26  1  0  0  0  0
 26 45  1  0  0  0  0
M  END
> <OPENEYE_ISO_SMILES>
c1ccc(c(c1)Cn2c3c(c4c2c(ccc4)C(=O)O)CCCC3)C(F)(F)F

> <OPENEYE_INCHI>
InChI=1S/C21H18F3NO2/c22-21(23,24)17-10-3-1-6-13(17)12-25-18-11-4-2-7-14(18)15-8-5-9-16(19(15)25)20(26)27/h1,3,5-6,8-10H,2,4,7,11-12H2,(H,26,27)

> <OPENEYE_INCHIKEY>
XAYKLHUEULGGGJ-UHFFFAOYSA-N

> <FORMULA>
C21H18F3NO2

$$$$
