@<TRIPOS>MOLECULE
F8A
 45 48 0 0 0
SMALL
GASTEIGER

@<TRIPOS>ATOM
      1 F           2.3950   -1.1120    2.6450 F       1  LIG1       -0.1659
      2 C           1.5210   -1.1920    1.5550 C.3     1  LIG1        0.4177
      3 F           0.9420   -2.4640    1.5140 F       1  LIG1       -0.1659
      4 F           0.5180   -0.2260    1.6890 F       1  LIG1       -0.1659
      5 C           2.2860   -0.9470    0.2790 C.ar    1  LIG1        0.0597
      6 C           3.6570   -0.7740    0.3180 C.ar    1  LIG1       -0.0498
      7 C           4.3590   -0.5490   -0.8520 C.ar    1  LIG1       -0.0612
      8 C           3.6900   -0.4980   -2.0600 C.ar    1  LIG1       -0.0614
      9 C           2.3190   -0.6720   -2.0990 C.ar    1  LIG1       -0.0563
     10 C           1.6180   -0.9010   -0.9300 C.ar    1  LIG1       -0.0161
     11 C           0.1240   -1.0960   -0.9730 C.3     1  LIG1        0.0491
     12 N          -0.5420    0.1380   -0.5470 N.ar    1  LIG1       -0.3385
     13 C           0.0760    1.3500   -0.3830 C.ar    1  LIG1        0.0234
     14 C           1.5400    1.6510   -0.6040 C.3     1  LIG1       -0.0120
     15 C           1.7160    3.1690   -0.7200 C.3     1  LIG1       -0.0474
     16 C           1.0160    3.8540    0.4560 C.3     1  LIG1       -0.0486
     17 C          -0.5020    3.7170    0.2930 C.3     1  LIG1       -0.0254
     18 C          -0.8260    2.2720    0.0150 C.ar    1  LIG1       -0.0189
     19 C          -1.8660    0.2520   -0.2620 C.ar    1  LIG1        0.0639
     20 C          -2.1050    1.5990    0.1120 C.ar    1  LIG1        0.0041
     21 C          -3.3820    2.0380    0.4720 C.ar    1  LIG1       -0.0523
     22 C          -4.4020    1.0990    0.4540 C.ar    1  LIG1       -0.0603
     23 C          -4.1830   -0.2160    0.0980 C.ar    1  LIG1       -0.0457
     24 C          -2.9180   -0.6830   -0.2800 C.ar    1  LIG1        0.0828
     25 C          -2.6960   -2.0890   -0.6610 C.2     1  LIG1        0.3388
     26 O          -3.6800   -2.9960   -0.4970 O.3     1  LIG1       -0.4771
     27 O          -1.6250   -2.4320   -1.1220 O.2     1  LIG1       -0.2451
     28 H           4.1800   -0.8130    1.2620 H       1  LIG1        0.0623
     29 H           5.4300   -0.4130   -0.8220 H       1  LIG1        0.0618
     30 H           4.2380   -0.3220   -2.9740 H       1  LIG1        0.0618
     31 H           1.7960   -0.6320   -3.0430 H       1  LIG1        0.0621
     32 H          -0.1820   -1.3410   -1.9900 H       1  LIG1        0.0541
     33 H          -0.1560   -1.9090   -0.3030 H       1  LIG1        0.0541
     34 H           2.1220    1.2780    0.2390 H       1  LIG1        0.0328
     35 H           1.8770    1.1720   -1.5240 H       1  LIG1        0.0328
     36 H           2.7780    3.4140   -0.7050 H       1  LIG1        0.0269
     37 H           1.2770    3.5150   -1.6560 H       1  LIG1        0.0269
     38 H           1.3260    3.3820    1.3890 H       1  LIG1        0.0269
     39 H           1.2860    4.9100    0.4750 H       1  LIG1        0.0269
     40 H          -0.9990    4.0340    1.2110 H       1  LIG1        0.0314
     41 H          -0.8380    4.3380   -0.5380 H       1  LIG1        0.0314
     42 H          -3.5670    3.0640    0.7530 H       1  LIG1        0.0624
     43 H          -5.4000    1.4070    0.7280 H       1  LIG1        0.0618
     44 H          -5.0150   -0.9050    0.1020 H       1  LIG1        0.0626
     45 H          -3.4870   -3.9050   -0.7610 H       1  LIG1        0.2954
@<TRIPOS>BOND
     1     1     2    1
     2     2     3    1
     3     2     4    1
     4     2     5    1
     5     5     6   ar
     6     5    10   ar
     7     6     7   ar
     8     6    28    1
     9     7     8   ar
    10     7    29    1
    11     8     9   ar
    12     8    30    1
    13     9    10   ar
    14     9    31    1
    15    10    11    1
    16    11    12    1
    17    11    32    1
    18    11    33    1
    19    12    13   ar
    20    12    19   ar
    21    13    14    1
    22    13    18   ar
    23    14    15    1
    24    14    34    1
    25    14    35    1
    26    15    16    1
    27    15    36    1
    28    15    37    1
    29    16    17    1
    30    16    38    1
    31    16    39    1
    32    17    18    1
    33    17    40    1
    34    17    41    1
    35    18    20   ar
    36    19    24   ar
    37    19    20   ar
    38    20    21   ar
    39    21    22   ar
    40    21    42    1
    41    22    23   ar
    42    22    43    1
    43    23    24   ar
    44    23    44    1
    45    24    25    1
    46    25    27    2
    47    25    26    1
    48    26    45    1
