F8A
  Mrv15b2303062314262D          

 27 30  0  0  0  0            999 V2000
   -0.8228   -2.4694    0.0000 F   0  0  0  0  0  0  0  0  0  0  0  0
   -0.1083   -2.0569    0.0000 C   0  0  0  0  0  0  0  0  0  0  0  0
   -0.5208   -1.3425    0.0000 F   0  0  0  0  0  0  0  0  0  0  0  0
    0.3042   -2.7714    0.0000 F   0  0  0  0  0  0  0  0  0  0  0  0
    0.6061   -1.6444    0.0000 C   0  0  0  0  0  0  0  0  0  0  0  0
    1.3206   -2.0569    0.0000 C   0  0  0  0  0  0  0  0  0  0  0  0
    2.0351   -1.6444    0.0000 C   0  0  0  0  0  0  0  0  0  0  0  0
    2.0351   -0.8194    0.0000 C   0  0  0  0  0  0  0  0  0  0  0  0
    1.3206   -0.4069    0.0000 C   0  0  0  0  0  0  0  0  0  0  0  0
    0.6061   -0.8194    0.0000 C   0  0  0  0  0  0  0  0  0  0  0  0
   -0.1083   -0.4069    0.0000 C   0  0  0  0  0  0  0  0  0  0  0  0
   -0.1083    0.4181    0.0000 N   0  0  0  0  0  0  0  0  0  0  0  0
    0.5591    0.9030    0.0000 C   0  0  0  0  0  0  0  0  0  0  0  0
    1.3661    0.7314    0.0000 C   0  0  0  0  0  0  0  0  0  0  0  0
    1.9181    1.3445    0.0000 C   0  0  0  0  0  0  0  0  0  0  0  0
    1.6632    2.1292    0.0000 C   0  0  0  0  0  0  0  0  0  0  0  0
    0.8562    2.3007    0.0000 C   0  0  0  0  0  0  0  0  0  0  0  0
    0.3042    1.6876    0.0000 C   0  0  0  0  0  0  0  0  0  0  0  0
   -0.7758    0.9030    0.0000 C   0  0  0  0  0  0  0  0  0  0  0  0
   -0.5208    1.6876    0.0000 C   0  0  0  0  0  0  0  0  0  0  0  0
   -1.0729    2.3007    0.0000 C   0  0  0  0  0  0  0  0  0  0  0  0
   -1.8798    2.1292    0.0000 C   0  0  0  0  0  0  0  0  0  0  0  0
   -2.1348    1.3445    0.0000 C   0  0  0  0  0  0  0  0  0  0  0  0
   -1.5827    0.7314    0.0000 C   0  0  0  0  0  0  0  0  0  0  0  0
   -1.8377   -0.0532    0.0000 C   0  0  0  0  0  0  0  0  0  0  0  0
   -1.2857   -0.6663    0.0000 O   0  0  0  0  0  0  0  0  0  0  0  0
   -2.6447   -0.2247    0.0000 O   0  0  0  0  0  0  0  0  0  0  0  0
  1  2  1  0  0  0  0
  2  3  1  0  0  0  0
  2  4  1  0  0  0  0
  2  5  1  0  0  0  0
  5  6  4  0  0  0  0
  5 10  4  0  0  0  0
  6  7  4  0  0  0  0
  7  8  4  0  0  0  0
  8  9  4  0  0  0  0
  9 10  4  0  0  0  0
 10 11  1  0  0  0  0
 11 12  1  0  0  0  0
 12 13  4  0  0  0  0
 12 19  4  0  0  0  0
 13 14  1  0  0  0  0
 13 18  4  0  0  0  0
 14 15  1  0  0  0  0
 15 16  1  0  0  0  0
 16 17  1  0  0  0  0
 17 18  1  0  0  0  0
 18 20  4  0  0  0  0
 19 24  4  0  0  0  0
 19 20  4  0  0  0  0
 20 21  4  0  0  0  0
 21 22  4  0  0  0  0
 22 23  4  0  0  0  0
 23 24  4  0  0  0  0
 24 25  1  0  0  0  0
 25 27  2  0  0  0  0
 25 26  1  0  0  0  0
M  END
