5T7
  Mrv15b2303062314122D          

 27 30  0  0  0  0            999 V2000
    1.0051    1.0980    0.0000 C   0  0  0  0  0  0  0  0  0  0  0  0
   -1.2165    0.8895    0.0000 C   0  0  1  0  0  0  0  0  0  0  0  0
   -1.6290    1.6040    0.0000 C   0  0  0  0  0  0  0  0  0  0  0  0
   -1.2165    0.0645    0.0000 C   0  0  0  0  0  0  0  0  0  0  0  0
   -0.5020   -0.3480    0.0000 N   0  0  0  0  0  0  0  0  0  0  0  0
   -0.6198    2.6485    0.0000 C   0  0  0  0  0  0  0  0  0  0  0  0
   -0.5020   -1.1730    0.0000 C   0  0  0  0  0  0  0  0  0  0  0  0
   -0.5020   -2.8230    0.0000 C   0  0  0  0  0  0  0  0  0  0  0  0
    0.2124   -1.5855    0.0000 C   0  0  0  0  0  0  0  0  0  0  0  0
    0.2124   -2.4105    0.0000 C   0  0  0  0  0  0  0  0  0  0  0  0
    1.6414   -2.4105    0.0000 C   0  0  0  0  0  0  0  0  0  0  0  0
   -0.0895    2.0165    0.0000 C   0  0  1  0  0  0  0  0  0  0  0  0
    0.4408    2.6485    0.0000 C   0  0  0  0  0  0  0  0  0  0  0  0
    1.2532    2.5052    0.0000 C   0  0  0  0  0  0  0  0  0  0  0  0
    1.5354    1.7300    0.0000 O   0  0  0  0  0  0  0  0  0  0  0  0
    0.1926    1.2413    0.0000 N   0  0  0  0  0  0  0  0  0  0  0  0
   -0.8040    1.6040    0.0000 C   0  0  1  0  0  0  0  0  0  0  0  0
   -1.9310   -0.3480    0.0000 O   0  0  0  0  0  0  0  0  0  0  0  0
    0.5556    3.4655    0.0000 F   0  0  0  0  0  0  0  0  0  0  0  0
   -0.1723    3.2005    0.0000 F   0  0  0  0  0  0  0  0  0  0  0  0
    1.2873    0.3228    0.0000 N   0  0  0  0  0  0  0  0  0  0  0  0
   -1.2165   -1.5855    0.0000 C   0  0  0  0  0  0  0  0  0  0  0  0
   -1.2165   -2.4105    0.0000 C   0  0  0  0  0  0  0  0  0  0  0  0
    0.9269   -2.8230    0.0000 C   0  0  0  0  0  0  0  0  0  0  0  0
    1.6414   -1.5855    0.0000 C   0  0  0  0  0  0  0  0  0  0  0  0
    0.9269   -1.1730    0.0000 N   0  0  0  0  0  0  0  0  0  0  0  0
    2.3559   -2.8230    0.0000 Cl  0  0  0  0  0  0  0  0  0  0  0  0
 11 27  1  0  0  0  0
 11 25  4  0  0  0  0
 11 24  4  0  0  0  0
 25 26  4  0  0  0  0
 10 24  4  0  0  0  0
  9 26  4  0  0  0  0
  9 10  4  0  0  0  0
  8 10  4  0  0  0  0
  7  9  4  0  0  0  0
  8 23  4  0  0  0  0
  5  7  1  0  0  0  0
  7 22  4  0  0  0  0
 22 23  4  0  0  0  0
  4  5  1  0  0  0  0
  1 21  1  0  0  0  0
  2  4  1  6  0  0  0
  4 18  2  0  0  0  0
  2  3  1  0  0  0  0
  2 17  1  0  0  0  0
 17  3  1  1  0  0  0
  1 16  2  0  0  0  0
  1 15  1  0  0  0  0
 12 16  1  0  0  0  0
 14 15  1  0  0  0  0
 12 17  1  6  0  0  0
 12  6  1  1  0  0  0
 12 13  1  0  0  0  0
 13 14  1  0  0  0  0
 13 20  1  0  0  0  0
 13 19  1  0  0  0  0
M  END
