5T7
  -OEChem-02242319223D

 44 47  0     1  0  0  0  0  0999 V2000
    5.0310    0.9690   -1.4190 C   0  0  0  0  0  0  0  0  0  0  0  0
    1.1910   -0.6830   -0.1740 C   0  0  1  0  0  0  0  0  0  0  0  0
    1.6270   -1.7530    0.8290 C   0  0  0  0  0  0  0  0  0  0  0  0
    0.0320    0.2010    0.2100 C   0  0  0  0  0  0  0  0  0  0  0  0
   -1.1420    0.0950   -0.4440 N   0  0  0  0  0  0  0  0  0  0  0  0
    3.8060   -2.0700   -0.8450 C   0  0  0  0  0  0  0  0  0  0  0  0
   -2.2430    0.8460   -0.0270 C   0  0  0  0  0  0  0  0  0  0  0  0
   -4.4240    2.3830    0.8180 C   0  0  0  0  0  0  0  0  0  0  0  0
   -3.5460    0.3080   -0.1180 C   0  0  0  0  0  0  0  0  0  0  0  0
   -4.6450    1.0920    0.3110 C   0  0  0  0  0  0  0  0  0  0  0  0
   -6.0840   -0.7090   -0.2830 C   0  0  0  0  0  0  0  0  0  0  0  0
    3.8070   -0.7000   -0.1620 C   0  0  1  0  0  0  0  0  0  0  0  0
    4.9850   -0.6180    0.8130 C   0  0  0  0  0  0  0  0  0  0  0  0
    6.2760   -0.4770   -0.0070 C   0  0  0  0  0  0  0  0  0  0  0  0
    6.1840    0.7330   -0.7680 O   0  0  0  0  0  0  0  0  0  0  0  0
    3.9290    0.3470   -1.1740 N   0  0  0  0  0  0  0  0  0  0  0  0
    2.4970   -0.5140    0.6050 C   0  0  1  0  0  0  0  0  0  0  0  0
    0.1560    1.0070    1.1070 O   0  0  0  0  0  0  0  0  0  0  0  0
    4.8310    0.4940    1.6480 F   0  0  0  0  0  0  0  0  0  0  0  0
    5.0420   -1.7830    1.5850 F   0  0  0  0  0  0  0  0  0  0  0  0
    5.0260    1.9320   -2.3990 N   0  0  0  0  0  0  0  0  0  0  0  0
   -2.0670    2.1140    0.4810 C   0  0  0  0  0  0  0  0  0  0  0  0
   -3.1560    2.8720    0.9000 C   0  0  0  0  0  0  0  0  0  0  0  0
   -5.9430    0.5550    0.2200 C   0  0  0  0  0  0  0  0  0  0  0  0
   -4.9590   -1.4260   -0.6870 C   0  0  0  0  0  0  0  0  0  0  0  0
   -3.7520   -0.9200   -0.6000 N   0  0  0  0  0  0  0  0  0  0  0  0
   -7.6620   -1.4200   -0.4170 Cl  0  0  0  0  0  0  0  0  0  0  0  0
    1.2660   -0.9260   -1.2340 H   0  0  0  0  0  0  0  0  0  0  0  0
    1.0750   -1.8180    1.7670 H   0  0  0  0  0  0  0  0  0  0  0  0
    1.9880   -2.7000    0.4290 H   0  0  0  0  0  0  0  0  0  0  0  0
   -1.2210   -0.5030   -1.2040 H   0  0  0  0  0  0  0  0  0  0  0  0
    3.7100   -2.8510   -0.0920 H   0  0  0  0  0  0  0  0  0  0  0  0
    2.9680   -2.1290   -1.5400 H   0  0  0  0  0  0  0  0  0  0  0  0
    4.7410   -2.2040   -1.3910 H   0  0  0  0  0  0  0  0  0  0  0  0
   -5.2580    2.9840    1.1480 H   0  0  0  0  0  0  0  0  0  0  0  0
    7.1340   -0.4270    0.6620 H   0  0  0  0  0  0  0  0  0  0  0  0
    6.3810   -1.3290   -0.6790 H   0  0  0  0  0  0  0  0  0  0  0  0
    2.5170    0.2360    1.3960 H   0  0  0  0  0  0  0  0  0  0  0  0
    4.2080    2.1270   -2.8830 H   0  0  0  0  0  0  0  0  0  0  0  0
    5.8400    2.4170   -2.6060 H   0  0  0  0  0  0  0  0  0  0  0  0
   -1.0710    2.5240    0.5550 H   0  0  0  0  0  0  0  0  0  0  0  0
   -2.9930    3.8660    1.2910 H   0  0  0  0  0  0  0  0  0  0  0  0
   -6.8030    1.1240    0.5390 H   0  0  0  0  0  0  0  0  0  0  0  0
   -5.0840   -2.4220   -1.0830 H   0  0  0  0  0  0  0  0  0  0  0  0
 11 27  1  0  0  0  0
 11 25  2  0  0  0  0
 11 24  1  0  0  0  0
 25 26  1  0  0  0  0
 10 24  2  0  0  0  0
  9 26  2  0  0  0  0
  9 10  1  0  0  0  0
  8 10  1  0  0  0  0
  7  9  1  0  0  0  0
  8 23  2  0  0  0  0
  5  7  1  0  0  0  0
  7 22  2  0  0  0  0
 22 23  1  0  0  0  0
  4  5  1  0  0  0  0
  1 21  1  0  0  0  0
  2  4  1  0  0  0  0
  4 18  2  0  0  0  0
  2  3  1  0  0  0  0
  2 17  1  0  0  0  0
  3 17  1  0  0  0  0
  1 16  2  0  0  0  0
  1 15  1  0  0  0  0
 12 16  1  0  0  0  0
 14 15  1  0  0  0  0
 12 17  1  0  0  0  0
  6 12  1  0  0  0  0
 12 13  1  0  0  0  0
 13 14  1  0  0  0  0
 13 20  1  0  0  0  0
 13 19  1  0  0  0  0
  2 28  1  0  0  0  0
  3 29  1  0  0  0  0
  3 30  1  0  0  0  0
  5 31  1  0  0  0  0
  6 32  1  0  0  0  0
  6 33  1  0  0  0  0
  6 34  1  0  0  0  0
  8 35  1  0  0  0  0
 14 36  1  0  0  0  0
 14 37  1  0  0  0  0
 17 38  1  0  0  0  0
 21 39  1  0  0  0  0
 21 40  1  0  0  0  0
 22 41  1  0  0  0  0
 23 42  1  0  0  0  0
 24 43  1  0  0  0  0
 25 44  1  0  0  0  0
M  END
> <OPENEYE_ISO_SMILES>
C[C@]1(C(COC(=N1)N)(F)F)[C@@H]2C[C@H]2C(=O)Nc3cccc4c3ncc(c4)Cl

> <OPENEYE_INCHI>
InChI=1S/C18H17ClF2N4O2/c1-17(18(20,21)8-27-16(22)25-17)12-6-11(12)15(26)24-13-4-2-3-9-5-10(19)7-23-14(9)13/h2-5,7,11-12H,6,8H2,1H3,(H2,22,25)(H,24,26)/t11-,12-,17-/m1/s1

> <OPENEYE_INCHIKEY>
FPQSTKSVKJAHKE-PSTGCABASA-N

> <FORMULA>
C18H17ClF2N4O2

$$$$
