@<TRIPOS>MOLECULE
5T7
 44 47 0 0 0
SMALL
GASTEIGER

@<TRIPOS>ATOM
      1 C           5.0310    0.9690   -1.4190 C.2     1  LIG1        0.2760
      2 C           1.1910   -0.6830   -0.1740 C.3     1  LIG1        0.0414
      3 C           1.6270   -1.7530    0.8290 C.3     1  LIG1       -0.0357
      4 C           0.0320    0.2010    0.2100 C.2     1  LIG1        0.2207
      5 N          -1.1420    0.0950   -0.4440 N.am    1  LIG1       -0.2835
      6 C           3.8060   -2.0700   -0.8450 C.3     1  LIG1       -0.0336
      7 C          -2.2430    0.8460   -0.0270 C.ar    1  LIG1        0.0596
      8 C          -4.4240    2.3830    0.8180 C.ar    1  LIG1       -0.0524
      9 C          -3.5460    0.3080   -0.1180 C.ar    1  LIG1        0.0922
     10 C          -4.6450    1.0920    0.3110 C.ar    1  LIG1        0.0036
     11 C          -6.0840   -0.7090   -0.2830 C.ar    1  LIG1        0.0596
     12 C           3.8070   -0.7000   -0.1620 C.3     1  LIG1        0.1335
     13 C           4.9850   -0.6180    0.8130 C.3     1  LIG1        0.3067
     14 C           6.2760   -0.4770   -0.0070 C.3     1  LIG1        0.1578
     15 O           6.1840    0.7330   -0.7680 O.2     1  LIG1       -0.4598
     16 N           3.9290    0.3470   -1.1740 N.2     1  LIG1       -0.2242
     17 C           2.4970   -0.5140    0.6050 C.3     1  LIG1        0.0016
     18 O           0.1560    1.0070    1.1070 O.2     1  LIG1       -0.2752
     19 F           4.8310    0.4940    1.6480 F       1  LIG1       -0.1993
     20 F           5.0420   -1.7830    1.5850 F       1  LIG1       -0.1993
     21 N           5.0260    1.9320   -2.3990 N.pl3   1  LIG1       -0.3134
     22 C          -2.0670    2.1140    0.4810 C.ar    1  LIG1       -0.0384
     23 C          -3.1560    2.8720    0.9000 C.ar    1  LIG1       -0.0593
     24 C          -5.9430    0.5550    0.2200 C.ar    1  LIG1       -0.0327
     25 C          -4.9590   -1.4260   -0.6870 C.ar    1  LIG1        0.0466
     26 N          -3.7520   -0.9200   -0.6000 N.ar    1  LIG1       -0.2517
     27 CL         -7.6620   -1.4200   -0.4170 Cl      1  LIG1       -0.0820
     28 H           1.2660   -0.9260   -1.2340 H       1  LIG1        0.0398
     29 H           1.0750   -1.8180    1.7670 H       1  LIG1        0.0276
     30 H           1.9880   -2.7000    0.4290 H       1  LIG1        0.0276
     31 H          -1.2210   -0.5030   -1.2040 H       1  LIG1        0.1549
     32 H           3.7100   -2.8510   -0.0920 H       1  LIG1        0.0255
     33 H           2.9680   -2.1290   -1.5400 H       1  LIG1        0.0255
     34 H           4.7410   -2.2040   -1.3910 H       1  LIG1        0.0255
     35 H          -5.2580    2.9840    1.1480 H       1  LIG1        0.0624
     36 H           7.1340   -0.4270    0.6620 H       1  LIG1        0.0759
     37 H           6.3810   -1.3290   -0.6790 H       1  LIG1        0.0759
     38 H           2.5170    0.2360    1.3960 H       1  LIG1        0.0333
     39 H           4.2080    2.1270   -2.8830 H       1  LIG1        0.1466
     40 H           5.8400    2.4170   -2.6060 H       1  LIG1        0.1466
     41 H          -1.0710    2.5240    0.5550 H       1  LIG1        0.0637
     42 H          -2.9930    3.8660    1.2910 H       1  LIG1        0.0618
     43 H          -6.8030    1.1240    0.5390 H       1  LIG1        0.0639
     44 H          -5.0840   -2.4220   -1.0830 H       1  LIG1        0.0844
@<TRIPOS>BOND
     1    11    27    1
     2    11    25   ar
     3    11    24   ar
     4    25    26   ar
     5    10    24   ar
     6     9    26   ar
     7     9    10   ar
     8     8    10   ar
     9     7     9   ar
    10     8    23   ar
    11     5     7    1
    12     7    22   ar
    13    22    23   ar
    14     4     5   am
    15     1    21    1
    16     2     4    1
    17     4    18    2
    18     2     3    1
    19     2    17    1
    20     3    17    1
    21     1    16    2
    22     1    15    1
    23    12    16    1
    24    14    15    1
    25    12    17    1
    26     6    12    1
    27    12    13    1
    28    13    14    1
    29    13    20    1
    30    13    19    1
    31     2    28    1
    32     3    29    1
    33     3    30    1
    34     5    31    1
    35     6    32    1
    36     6    33    1
    37     6    34    1
    38     8    35    1
    39    14    36    1
    40    14    37    1
    41    17    38    1
    42    21    39    1
    43    21    40    1
    44    22    41    1
    45    23    42    1
    46    24    43    1
    47    25    44    1
