@<TRIPOS>MOLECULE
ABQ
 58 62 0 0 0
SMALL
GASTEIGER

@<TRIPOS>ATOM
      1 C          39.9140   25.9530   28.4130 C.ar    1  UNL1        0.0569
      2 C          37.6630   25.7170   28.0730 C.ar    1  UNL1        0.0673
      3 C          39.6510   27.0510   29.1940 C.ar    1  UNL1        0.1311
      4 C          37.4040   26.8350   28.8420 C.ar    1  UNL1        0.1381
      5 N          38.9050   25.2470   27.8120 N.ar    1  UNL1       -0.2576
      6 N          38.4050   27.5270   29.4290 N.ar    1  UNL1       -0.2259
      7 C          40.7630   27.8040   29.8520 C.2     1  UNL1        0.2149
      8 O          40.9150   27.5860   31.0750 O.2     1  UNL1       -0.2849
      9 C          41.7810   28.5310   29.0840 C.ar    1  UNL1        0.0539
     10 C          41.7440   29.8710   28.6940 C.ar    1  UNL1        0.0184
     11 N          42.8410   30.1640   27.9140 N.ar    1  UNL1       -0.3285
     12 C          43.6140   29.0140   27.7780 C.ar    1  UNL1        0.1467
     13 C          42.9950   27.9880   28.4880 C.ar    1  UNL1        0.0692
     14 N          44.7500   28.9340   27.0690 N.ar    1  UNL1       -0.2176
     15 C          43.6630   26.7640   28.4770 C.ar    1  UNL1        0.1293
     16 N          44.8030   26.6480   27.7660 N.ar    1  UNL1       -0.2204
     17 N          43.2260   25.6210   29.1330 N.pl3   1  UNL1       -0.3425
     18 C          45.2650   27.7220   27.1370 C.ar    1  UNL1        0.1204
     19 C          43.1830   31.4410   27.2620 C.3     1  UNL1        0.0303
     20 C          43.0930   32.5960   28.2840 C.3     1  UNL1       -0.0444
     21 C          42.1180   31.5710   26.1810 C.3     1  UNL1       -0.0444
     22 N          36.1130   27.3720   29.0480 N.pl3   1  UNL1       -0.3221
     23 C          35.3630   27.9090   27.9070 C.3     1  UNL1        0.0542
     24 C          35.7030   29.4010   27.8910 C.3     1  UNL1        0.0666
     25 O          34.5500   30.2080   28.2420 O.3     1  UNL1       -0.3773
     26 C          33.5090   29.3150   28.7130 C.3     1  UNL1        0.0563
     27 C          33.8190   27.9510   28.1070 C.3     1  UNL1        0.0280
     28 C          33.2920   26.8290   28.9440 C.ar    1  UNL1       -0.0401
     29 C          32.1630   27.1470   29.6900 C.ar    1  UNL1       -0.0555
     30 C          31.5770   26.1700   30.4620 C.ar    1  UNL1       -0.0262
     31 C          32.1290   24.8990   30.5000 C.ar    1  UNL1        0.1234
     32 C          33.2480   24.5480   29.7800 C.ar    1  UNL1       -0.0262
     33 F          31.5230   24.0090   31.3130 F       1  UNL1       -0.2055
     34 C          33.8380   25.5330   28.9800 C.ar    1  UNL1       -0.0555
     35 H          40.9563   25.6333   28.2666 H       1  UNL1        0.0852
     36 H          36.8063   25.1749   27.6462 H       1  UNL1        0.0864
     37 H          40.9555   30.5870   28.9689 H       1  UNL1        0.0817
     38 H          43.7769   24.7525   29.0768 H       1  UNL1        0.1437
     39 H          42.3509   25.6415   29.6758 H       1  UNL1        0.1437
     40 H          46.2121   27.5807   26.5956 H       1  UNL1        0.1048
     41 H          44.2044   31.4754   26.8552 H       1  UNL1        0.0523
     42 H          43.1249   32.1861   29.3043 H       1  UNL1        0.0249
     43 H          43.9404   33.2819   28.1377 H       1  UNL1        0.0249
     44 H          42.1496   33.1424   28.1377 H       1  UNL1        0.0249
     45 H          41.1309   31.6915   26.6513 H       1  UNL1        0.0249
     46 H          42.3358   32.4492   25.5555 H       1  UNL1        0.0249
     47 H          42.1181   30.6662   25.5555 H       1  UNL1        0.0249
     48 H          35.7017   27.3863   29.9922 H       1  UNL1        0.1479
     49 H          35.6145   27.2890   27.0339 H       1  UNL1        0.0527
     50 H          36.5085   29.5928   28.6152 H       1  UNL1        0.0578
     51 H          36.0211   29.6738   26.8739 H       1  UNL1        0.0578
     52 H          33.5231   29.2573   29.8114 H       1  UNL1        0.0566
     53 H          32.5104   29.6693   28.4177 H       1  UNL1        0.0566
     54 H          33.3111   27.8138   27.1409 H       1  UNL1        0.0390
     55 H          31.7444   28.1639   29.6637 H       1  UNL1        0.0621
     56 H          30.6735   26.3969   31.0470 H       1  UNL1        0.0646
     57 H          33.6634   23.5307   29.8314 H       1  UNL1        0.0646
     58 H          34.7282   25.2940   28.3796 H       1  UNL1        0.0621
@<TRIPOS>BOND
     1     3     1   ar
     2     4     2   ar
     3     5     2   ar
     4     5     1   ar
     5     6     4   ar
     6     6     3   ar
     7     7     3    1
     8     8     7    2
     9     9     7    1
    10    10     9   ar
    11    11    10   ar
    12    12    11   ar
    13    13     9   ar
    14    13    12   ar
    15    14    12   ar
    16    15    13   ar
    17    16    15   ar
    18    17    15    1
    19    18    16   ar
    20    18    14   ar
    21    19    11    1
    22    20    19    1
    23    21    19    1
    24    22     4    1
    25    23    22    1
    26    24    23    1
    27    25    24    1
    28    26    25    1
    29    27    26    1
    30    27    23    1
    31    28    27    1
    32    29    28   ar
    33    30    29   ar
    34    31    30   ar
    35    32    31   ar
    36    33    31    1
    37    34    32   ar
    38    34    28   ar
    39     1    35    1
    40     2    36    1
    41    10    37    1
    42    17    38    1
    43    17    39    1
    44    18    40    1
    45    19    41    1
    46    20    42    1
    47    20    43    1
    48    20    44    1
    49    21    45    1
    50    21    46    1
    51    21    47    1
    52    22    48    1
    53    23    49    1
    54    24    50    1
    55    24    51    1
    56    26    52    1
    57    26    53    1
    58    27    54    1
    59    29    55    1
    60    30    56    1
    61    32    57    1
    62    34    58    1
