@<TRIPOS>MOLECULE
OSC
 89 93 0 0 0
SMALL
GASTEIGER

@<TRIPOS>ATOM
      1 N          18.2400  -15.2660   20.7950 N.am    1  UNL1       -0.2850
      2 C          18.1030  -13.9470   20.0970 C.3     1  UNL1        0.0321
      3 C          19.5240  -15.2510   21.5420 C.3     1  UNL1        0.1028
      4 C          17.3430  -16.3070   20.7460 C.2     1  UNL1        0.2371
      5 C          19.5750  -13.5390   19.8600 C.3     1  UNL1       -0.0200
      6 C          17.2900  -12.9300   20.9680 C.3     1  UNL1       -0.0079
      7 C          20.1840  -13.8890   21.2400 C.3     1  UNL1       -0.0212
      8 O          17.5600  -17.3440   21.3620 O.2     1  UNL1       -0.2735
      9 C          19.7710  -12.0300   19.5950 C.3     1  UNL1       -0.0461
     10 C          17.4220  -11.4760   20.4640 C.3     1  UNL1        0.0570
     11 C          18.9230  -11.0780   20.4910 C.3     1  UNL1       -0.0265
     12 O          16.9030  -11.3570   19.1340 O.3     1  UNL1       -0.3917
     13 C          19.3030  -15.3850   23.0250 C.2     1  UNL1        0.2336
     14 N          19.0220  -14.2840   23.7630 N.am    1  UNL1       -0.3135
     15 O          19.3720  -16.4820   23.5420 O.2     1  UNL1       -0.2738
     16 C          18.7900  -14.3910   25.2080 C.3     1  UNL1        0.0154
     17 C          19.8630  -13.6000   25.9780 C.3     1  UNL1       -0.0132
     18 C          21.2550  -13.8310   25.4100 C.2     1  UNL1       -0.0378
     19 C          21.9890  -15.1400   25.5040 C.3     1  UNL1        0.0823
     20 N          23.1470  -15.0020   24.6020 N.pl3   1  UNL1       -0.2181
     21 C          23.3020  -13.5550   24.3610 C.3     1  UNL1        0.0796
     22 C          23.9300  -16.0150   24.0990 C.cat   1  UNL1        0.3625
     23 C          21.9860  -12.9530   24.7710 C.2     1  UNL1       -0.0505
     24 N          25.0320  -15.7160   23.3320 N.2     1  UNL1       -0.1335
     25 N          23.6300  -17.2600   24.3450 N.pl3   1  UNL1       -0.2518
     26 C          16.0750  -16.1860   19.9230 C.3     1  UNL1        0.1036
     27 C          15.7130  -17.5290   19.2550 C.3     1  UNL1       -0.0007
     28 C          14.7340  -17.2970   18.1120 C.ar    1  UNL1       -0.0451
     29 C          15.1840  -16.7230   16.9030 C.ar    1  UNL1       -0.0585
     30 C          14.2770  -16.5000   15.8420 C.ar    1  UNL1       -0.0615
     31 C          12.9190  -16.8510   15.9900 C.ar    1  UNL1       -0.0617
     32 C          12.4630  -17.4260   17.1960 C.ar    1  UNL1       -0.0615
     33 C          13.3660  -17.6490   18.2560 C.ar    1  UNL1       -0.0585
     34 N          14.9980  -15.7350   20.7990 N.am    1  UNL1       -0.3015
     35 C          14.2250  -14.6740   20.4510 C.2     1  UNL1        0.2426
     36 O          14.4100  -14.0820   19.3970 O.2     1  UNL1       -0.2730
     37 C          13.1360  -14.2190   21.3800 C.3     1  UNL1        0.1348
     38 O          12.3520  -15.3500   21.7790 O.3     1  UNL1       -0.3822
     39 C          12.2400  -13.1750   20.6990 C.3     1  UNL1        0.0070
     40 C          12.3420  -11.8710   21.4600 C.ar    1  UNL1       -0.0444
     41 C          11.5180  -11.6290   22.5860 C.ar    1  UNL1       -0.0585
     42 C          11.6200  -10.4060   23.2860 C.ar    1  UNL1       -0.0615
     43 C          12.5430   -9.4270   22.8590 C.ar    1  UNL1       -0.0617
     44 C          13.3630   -9.6690   21.7400 C.ar    1  UNL1       -0.0615
     45 C          13.2610  -10.8900   21.0420 C.ar    1  UNL1       -0.0585
     46 H          17.5345  -13.9828   19.1560 H       1  UNL1        0.0504
     47 H          20.1545  -16.0975   21.2323 H       1  UNL1        0.0597
     48 H          20.0115  -14.0309   18.9782 H       1  UNL1        0.0319
     49 H          16.2281  -13.2159   20.9439 H       1  UNL1        0.0308
     50 H          17.6975  -12.9664   21.9891 H       1  UNL1        0.0308
     51 H          21.2789  -13.9786   21.1832 H       1  UNL1        0.0291
     52 H          20.0038  -13.1265   22.0120 H       1  UNL1        0.0291
     53 H          20.8327  -11.7922   19.7570 H       1  UNL1        0.0269
     54 H          19.4315  -11.8571   18.5631 H       1  UNL1        0.0269
     55 H          16.8437  -10.8047   21.1159 H       1  UNL1        0.0594
     56 H          19.0283  -10.0475   20.1209 H       1  UNL1        0.0290
     57 H          19.2869  -11.1556   21.5262 H       1  UNL1        0.0290
     58 H          15.9389  -11.1359   19.1746 H       1  UNL1        0.2098
     59 H          18.9707  -13.3628   23.3052 H       1  UNL1        0.1487
     60 H          17.7965  -13.9841   25.4477 H       1  UNL1        0.0465
     61 H          18.8432  -15.4494   25.5030 H       1  UNL1        0.0465
     62 H          19.6271  -12.5274   25.9158 H       1  UNL1        0.0326
     63 H          19.8589  -13.9472   27.0218 H       1  UNL1        0.0326
     64 H          22.3239  -15.3208   26.5361 H       1  UNL1        0.0682
     65 H          21.3495  -15.9899   25.2235 H       1  UNL1        0.0682
     66 H          24.1215  -13.1464   24.9705 H       1  UNL1        0.0679
     67 H          23.5509  -13.3334   23.3127 H       1  UNL1        0.0679
     68 H          21.6799  -11.9172   24.5625 H       1  UNL1        0.0602
     69 H          25.6184  -16.4744   22.9553 H       1  UNL1        0.3058
     70 H          24.2185  -18.0160   23.9668 H       1  UNL1        0.2412
     71 H          22.8045  -17.4874   24.9175 H       1  UNL1        0.2412
     72 H          16.2302  -15.4561   19.1148 H       1  UNL1        0.0598
     73 H          16.6270  -17.9979   18.8618 H       1  UNL1        0.0336
     74 H          15.2458  -18.1883   20.0014 H       1  UNL1        0.0336
     75 H          16.2429  -16.4487   16.7865 H       1  UNL1        0.0620
     76 H          14.6302  -16.0528   14.9011 H       1  UNL1        0.0618
     77 H          12.2138  -16.6764   15.1641 H       1  UNL1        0.0618
     78 H          11.4037  -17.7000   17.3088 H       1  UNL1        0.0618
     79 H          13.0100  -18.0963   19.1958 H       1  UNL1        0.0620
     80 H          14.8230  -16.2252   21.6878 H       1  UNL1        0.1495
     81 H          13.5943  -13.7535   22.2650 H       1  UNL1        0.0693
     82 H          12.3195  -15.3969   22.7674 H       1  UNL1        0.2104
     83 H          12.5720  -13.0239   19.6612 H       1  UNL1        0.0343
     84 H          11.1969  -13.5242   20.6956 H       1  UNL1        0.0343
     85 H          10.7986  -12.3931   22.9156 H       1  UNL1        0.0620
     86 H          10.9817  -10.2171   24.1617 H       1  UNL1        0.0618
     87 H          12.6219   -8.4733   23.4014 H       1  UNL1        0.0618
     88 H          14.0831   -8.9056   21.4104 H       1  UNL1        0.0618
     89 H          13.9019  -11.0766   20.1677 H       1  UNL1        0.0620
@<TRIPOS>BOND
     1     2     1    1
     2     3     1    1
     3     4     1   am
     4     5     2    1
     5     6     2    1
     6     7     5    1
     7     7     3    1
     8     8     4    2
     9     9     5    1
    10    10     6    1
    11    11    10    1
    12    11     9    1
    13    12    10    1
    14    13     3    1
    15    14    13   am
    16    15    13    2
    17    16    14    1
    18    17    16    1
    19    18    17    1
    20    19    18    1
    21    20    19    1
    22    21    20    1
    23    22    20    1
    24    23    18    2
    25    23    21    1
    26    24    22    2
    27    25    22    1
    28    26     4    1
    29    27    26    1
    30    28    27    1
    31    29    28   ar
    32    30    29   ar
    33    31    30   ar
    34    32    31   ar
    35    33    32   ar
    36    33    28   ar
    37    34    26    1
    38    35    34   am
    39    36    35    2
    40    37    35    1
    41    38    37    1
    42    39    37    1
    43    40    39    1
    44    41    40   ar
    45    42    41   ar
    46    43    42   ar
    47    44    43   ar
    48    45    40   ar
    49    45    44   ar
    50     2    46    1
    51     3    47    1
    52     5    48    1
    53     6    49    1
    54     6    50    1
    55     7    51    1
    56     7    52    1
    57     9    53    1
    58     9    54    1
    59    10    55    1
    60    11    56    1
    61    11    57    1
    62    12    58    1
    63    14    59    1
    64    16    60    1
    65    16    61    1
    66    17    62    1
    67    17    63    1
    68    19    64    1
    69    19    65    1
    70    21    66    1
    71    21    67    1
    72    23    68    1
    73    24    69    1
    74    25    70    1
    75    25    71    1
    76    26    72    1
    77    27    73    1
    78    27    74    1
    79    29    75    1
    80    30    76    1
    81    31    77    1
    82    32    78    1
    83    33    79    1
    84    34    80    1
    85    37    81    1
    86    38    82    1
    87    39    83    1
    88    39    84    1
    89    41    85    1
    90    42    86    1
    91    43    87    1
    92    44    88    1
    93    45    89    1
