@<TRIPOS>MOLECULE
X20
 58 61 0 0 0
SMALL
GASTEIGER

@<TRIPOS>ATOM
      1 N          35.4990  123.0760  128.5420 N.ar    1  UNL1       -0.2424
      2 C          36.1660  123.7580  127.4930 C.2     1  UNL1        0.4209
      3 O          35.8860  123.6480  126.3310 O.2     1  UNL1       -0.2227
      4 C          35.7600  123.2060  129.9130 C.ar    1  UNL1        0.0650
      5 C          36.6820  123.9830  130.6010 C.ar    1  UNL1        0.0031
      6 C          36.6650  123.8350  132.0000 C.ar    1  UNL1        0.1249
      7 N          35.8140  122.9990  132.6860 N.ar    1  UNL1       -0.2395
      8 C          34.9490  122.2780  131.9800 C.ar    1  UNL1        0.0389
      9 C          34.8770  122.3410  130.5970 C.ar    1  UNL1        0.0193
     10 C          34.0680  121.6780  129.6330 C.ar    1  UNL1       -0.0234
     11 C          34.4430  122.1200  128.3970 C.ar    1  UNL1        0.0973
     12 N          37.5710  124.5790  132.7490 N.pl3   1  UNL1       -0.2982
     13 C          38.0010  125.8890  132.5500 C.ar    1  UNL1        0.0510
     14 C          39.1790  126.2600  131.8980 C.ar    1  UNL1       -0.0384
     15 C          39.5200  127.5960  131.7970 C.ar    1  UNL1       -0.0478
     16 C          38.7010  128.5750  132.3410 C.ar    1  UNL1        0.0384
     17 C          37.5240  128.2380  132.9790 C.ar    1  UNL1       -0.0295
     18 C          37.2000  126.9070  133.0700 C.ar    1  UNL1        0.0628
     19 CL         35.7320  126.5090  133.8680 Cl      1  UNL1       -0.0816
     20 C          39.1240  129.9870  132.2470 C.2     1  UNL1        0.2462
     21 O          39.5780  130.5840  133.2070 O.2     1  UNL1       -0.2700
     22 N          38.9870  130.6110  131.0220 N.am    1  UNL1       -0.3036
     23 C          39.2260  132.0580  130.8940 C.3     1  UNL1        0.0031
     24 C          38.0970  130.0510  129.9940 C.3     1  UNL1        0.0031
     25 O          37.1720  124.5580  127.9300 O.3     1  UNL1       -0.4424
     26 C          37.1000  125.9820  127.5980 C.3     1  UNL1        0.1070
     27 C          35.7030  126.4670  127.9090 C.3     1  UNL1       -0.0253
     28 C          37.4160  126.1240  126.1280 C.3     1  UNL1       -0.0253
     29 C          38.1290  126.6860  128.4530 C.3     1  UNL1       -0.0253
     30 C          33.8910  121.6880  127.1530 C.ar    1  UNL1        0.1717
     31 O          32.9110  122.4610  126.5970 O.2     1  UNL1       -0.4410
     32 C          32.5720  121.8440  125.4280 C.ar    1  UNL1        0.1826
     33 N          33.2700  120.7380  125.2090 N.ar    1  UNL1       -0.2239
     34 C          34.1290  120.6220  126.3140 C.ar    1  UNL1        0.0752
     35 H          37.3762  124.6656  130.0890 H       1  UNL1        0.0673
     36 H          34.2629  121.6044  132.5144 H       1  UNL1        0.0837
     37 H          33.2803  120.9403  129.8456 H       1  UNL1        0.0646
     38 H          37.9795  124.0953  133.5614 H       1  UNL1        0.1536
     39 H          39.8348  125.4901  131.4653 H       1  UNL1        0.0637
     40 H          40.4477  127.8850  131.2814 H       1  UNL1        0.0626
     41 H          36.8662  129.0119  133.4013 H       1  UNL1        0.0640
     42 H          39.3002  132.5074  131.8953 H       1  UNL1        0.0428
     43 H          40.1643  132.2276  130.3455 H       1  UNL1        0.0428
     44 H          38.3920  132.5203  130.3455 H       1  UNL1        0.0428
     45 H          37.2615  129.5253  130.4793 H       1  UNL1        0.0428
     46 H          37.7036  130.8646  129.3669 H       1  UNL1        0.0428
     47 H          38.6602  129.3442  129.3669 H       1  UNL1        0.0428
     48 H          35.5657  126.5147  128.9994 H       1  UNL1        0.0268
     49 H          35.5578  127.4681  127.4770 H       1  UNL1        0.0268
     50 H          34.9686  125.7712  127.4770 H       1  UNL1        0.0268
     51 H          38.4135  126.5722  126.0090 H       1  UNL1        0.0268
     52 H          37.4005  125.1324  125.6522 H       1  UNL1        0.0268
     53 H          36.6642  126.7708  125.6522 H       1  UNL1        0.0268
     54 H          37.8945  126.5256  129.5157 H       1  UNL1        0.0268
     55 H          39.1278  126.2811  128.2327 H       1  UNL1        0.0268
     56 H          38.1135  127.7636  128.2327 H       1  UNL1        0.0268
     57 H          31.8018  122.2237  124.7406 H       1  UNL1        0.1255
     58 H          34.8634  119.8201  126.4803 H       1  UNL1        0.0869
@<TRIPOS>BOND
     1     2     1   am
     2     3     2    2
     3     4     1   ar
     4     5     4   ar
     5     6     5   ar
     6     7     6   ar
     7     8     7   ar
     8     9     4   ar
     9     9     8   ar
    10    10     9   ar
    11    11    10   ar
    12    11     1   ar
    13    12     6    1
    14    13    12    1
    15    14    13   ar
    16    15    14   ar
    17    16    15   ar
    18    17    16   ar
    19    18    17   ar
    20    18    13   ar
    21    19    18    1
    22    20    16    1
    23    21    20    2
    24    22    20   am
    25    23    22    1
    26    24    22    1
    27    25     2    1
    28    26    25    1
    29    27    26    1
    30    28    26    1
    31    29    26    1
    32    30    11    1
    33    31    30   ar
    34    32    31   ar
    35    33    32   ar
    36    34    33   ar
    37    34    30   ar
    38     5    35    1
    39     8    36    1
    40    10    37    1
    41    12    38    1
    42    14    39    1
    43    15    40    1
    44    17    41    1
    45    23    42    1
    46    23    43    1
    47    23    44    1
    48    24    45    1
    49    24    46    1
    50    24    47    1
    51    27    48    1
    52    27    49    1
    53    27    50    1
    54    28    51    1
    55    28    52    1
    56    28    53    1
    57    29    54    1
    58    29    55    1
    59    29    56    1
    60    32    57    1
    61    34    58    1
