X20
 OpenBabel09282215223D

 58 61  0  0  0  0  0  0  0  0999 V2000
   35.4990  123.0760  128.5420 N   0  0  0  0  0  0  0  0  0  0  0  0
   36.1660  123.7580  127.4930 C   0  0  0  0  0  0  0  0  0  0  0  0
   35.8860  123.6480  126.3310 O   0  0  0  0  0  0  0  0  0  0  0  0
   35.7600  123.2060  129.9130 C   0  0  0  0  0  0  0  0  0  0  0  0
   36.6820  123.9830  130.6010 C   0  0  0  0  0  0  0  0  0  0  0  0
   36.6650  123.8350  132.0000 C   0  0  0  0  0  0  0  0  0  0  0  0
   35.8140  122.9990  132.6860 N   0  0  0  0  0  0  0  0  0  0  0  0
   34.9490  122.2780  131.9800 C   0  0  0  0  0  0  0  0  0  0  0  0
   34.8770  122.3410  130.5970 C   0  0  0  0  0  0  0  0  0  0  0  0
   34.0680  121.6780  129.6330 C   0  0  0  0  0  0  0  0  0  0  0  0
   34.4430  122.1200  128.3970 C   0  0  0  0  0  0  0  0  0  0  0  0
   37.5710  124.5790  132.7490 N   0  0  0  0  0  0  0  0  0  0  0  0
   38.0010  125.8890  132.5500 C   0  0  0  0  0  0  0  0  0  0  0  0
   39.1790  126.2600  131.8980 C   0  0  0  0  0  0  0  0  0  0  0  0
   39.5200  127.5960  131.7970 C   0  0  0  0  0  0  0  0  0  0  0  0
   38.7010  128.5750  132.3410 C   0  0  0  0  0  0  0  0  0  0  0  0
   37.5240  128.2380  132.9790 C   0  0  0  0  0  0  0  0  0  0  0  0
   37.2000  126.9070  133.0700 C   0  0  0  0  0  0  0  0  0  0  0  0
   35.7320  126.5090  133.8680 Cl  0  0  0  0  0  0  0  0  0  0  0  0
   39.1240  129.9870  132.2470 C   0  0  0  0  0  0  0  0  0  0  0  0
   39.5780  130.5840  133.2070 O   0  0  0  0  0  0  0  0  0  0  0  0
   38.9870  130.6110  131.0220 N   0  0  0  0  0  0  0  0  0  0  0  0
   39.2260  132.0580  130.8940 C   0  0  0  0  0  0  0  0  0  0  0  0
   38.0970  130.0510  129.9940 C   0  0  0  0  0  0  0  0  0  0  0  0
   37.1720  124.5580  127.9300 O   0  0  0  0  0  0  0  0  0  0  0  0
   37.1000  125.9820  127.5980 C   0  0  0  0  0  0  0  0  0  0  0  0
   35.7030  126.4670  127.9090 C   0  0  0  0  0  0  0  0  0  0  0  0
   37.4160  126.1240  126.1280 C   0  0  0  0  0  0  0  0  0  0  0  0
   38.1290  126.6860  128.4530 C   0  0  0  0  0  0  0  0  0  0  0  0
   33.8910  121.6880  127.1530 C   0  0  0  0  0  0  0  0  0  0  0  0
   32.9110  122.4610  126.5970 O   0  0  0  0  0  0  0  0  0  0  0  0
   32.5720  121.8440  125.4280 C   0  0  0  0  0  0  0  0  0  0  0  0
   33.2700  120.7380  125.2090 N   0  0  0  0  0  0  0  0  0  0  0  0
   34.1290  120.6220  126.3140 C   0  0  0  0  0  0  0  0  0  0  0  0
   37.3762  124.6656  130.0890 H   0  0  0  0  0  0  0  0  0  0  0  0
   34.2629  121.6044  132.5144 H   0  0  0  0  0  0  0  0  0  0  0  0
   33.2803  120.9403  129.8456 H   0  0  0  0  0  0  0  0  0  0  0  0
   37.9795  124.0953  133.5614 H   0  0  0  0  0  0  0  0  0  0  0  0
   39.8348  125.4901  131.4653 H   0  0  0  0  0  0  0  0  0  0  0  0
   40.4477  127.8850  131.2814 H   0  0  0  0  0  0  0  0  0  0  0  0
   36.8662  129.0119  133.4013 H   0  0  0  0  0  0  0  0  0  0  0  0
   39.3002  132.5074  131.8953 H   0  0  0  0  0  0  0  0  0  0  0  0
   40.1643  132.2276  130.3455 H   0  0  0  0  0  0  0  0  0  0  0  0
   38.3920  132.5203  130.3455 H   0  0  0  0  0  0  0  0  0  0  0  0
   37.2615  129.5253  130.4793 H   0  0  0  0  0  0  0  0  0  0  0  0
   37.7036  130.8646  129.3669 H   0  0  0  0  0  0  0  0  0  0  0  0
   38.6602  129.3442  129.3669 H   0  0  0  0  0  0  0  0  0  0  0  0
   35.5657  126.5147  128.9994 H   0  0  0  0  0  0  0  0  0  0  0  0
   35.5578  127.4681  127.4770 H   0  0  0  0  0  0  0  0  0  0  0  0
   34.9686  125.7712  127.4770 H   0  0  0  0  0  0  0  0  0  0  0  0
   38.4135  126.5722  126.0090 H   0  0  0  0  0  0  0  0  0  0  0  0
   37.4005  125.1324  125.6522 H   0  0  0  0  0  0  0  0  0  0  0  0
   36.6642  126.7708  125.6522 H   0  0  0  0  0  0  0  0  0  0  0  0
   37.8945  126.5256  129.5157 H   0  0  0  0  0  0  0  0  0  0  0  0
   39.1278  126.2811  128.2327 H   0  0  0  0  0  0  0  0  0  0  0  0
   38.1135  127.7636  128.2327 H   0  0  0  0  0  0  0  0  0  0  0  0
   31.8018  122.2237  124.7406 H   0  0  0  0  0  0  0  0  0  0  0  0
   34.8634  119.8201  126.4803 H   0  0  0  0  0  0  0  0  0  0  0  0
  2  1  1  0  0  0  0
  3  2  2  0  0  0  0
  4  1  1  0  0  0  0
  5  4  2  0  0  0  0
  5 35  1  0  0  0  0
  6  5  1  0  0  0  0
  7  6  2  0  0  0  0
  8  7  1  0  0  0  0
  8 36  1  0  0  0  0
  9  4  1  0  0  0  0
  9  8  2  0  0  0  0
 10  9  1  0  0  0  0
 10 37  1  0  0  0  0
 11 10  2  0  0  0  0
 11  1  1  0  0  0  0
 12  6  1  0  0  0  0
 12 38  1  0  0  0  0
 13 12  1  0  0  0  0
 14 13  2  0  0  0  0
 14 39  1  0  0  0  0
 15 14  1  0  0  0  0
 15 40  1  0  0  0  0
 16 15  2  0  0  0  0
 17 16  1  0  0  0  0
 17 41  1  0  0  0  0
 18 17  2  0  0  0  0
 18 13  1  0  0  0  0
 19 18  1  0  0  0  0
 20 16  1  0  0  0  0
 21 20  2  0  0  0  0
 22 20  1  0  0  0  0
 23 22  1  0  0  0  0
 23 42  1  0  0  0  0
 23 43  1  0  0  0  0
 23 44  1  0  0  0  0
 24 22  1  0  0  0  0
 24 45  1  0  0  0  0
 24 46  1  0  0  0  0
 24 47  1  0  0  0  0
 25  2  1  0  0  0  0
 26 25  1  0  0  0  0
 27 26  1  0  0  0  0
 27 48  1  0  0  0  0
 27 49  1  0  0  0  0
 27 50  1  0  0  0  0
 28 26  1  0  0  0  0
 28 51  1  0  0  0  0
 28 52  1  0  0  0  0
 28 53  1  0  0  0  0
 29 26  1  0  0  0  0
 29 54  1  0  0  0  0
 29 55  1  0  0  0  0
 29 56  1  0  0  0  0
 30 11  1  0  0  0  0
 31 30  1  0  0  0  0
 32 31  1  0  0  0  0
 32 57  1  0  0  0  0
 33 32  2  0  0  0  0
 34 33  1  0  0  0  0
 34 30  2  0  0  0  0
 34 58  1  0  0  0  0
M  END
$$$$
