@<TRIPOS>MOLECULE
3EA
 57 60 0 0 0
SMALL
GASTEIGER

@<TRIPOS>ATOM
      1 O           6.4020   -0.8860   36.6130 O.3     1  UNL1       -0.4915
      2 C           5.4600   -0.2650   35.8530 C.ar    1  UNL1        0.1273
      3 C           5.7740    0.4040   34.6700 C.ar    1  UNL1       -0.0188
      4 C           4.7720    0.9640   33.8890 C.ar    1  UNL1       -0.0454
      5 C           3.4470    0.8530   34.2990 C.ar    1  UNL1        0.0536
      6 C           2.2490    1.3180   33.7760 C.ar    1  UNL1        0.1934
      7 C           3.1430    0.1810   35.4800 C.ar    1  UNL1        0.1744
      8 N           1.2400    0.9510   34.5650 N.ar    1  UNL1       -0.0730
      9 O           1.7860    0.2340   35.6470 O.2     1  UNL1       -0.3537
     10 C           4.1340   -0.3840   36.2690 C.ar    1  UNL1        0.0397
     11 C           2.0570    2.2050   32.5400 C.3     1  UNL1        0.4380
     12 F           2.4160    1.5080   31.4700 F       1  UNL1       -0.1643
     13 F           2.7910    3.3100   32.5970 F       1  UNL1       -0.1643
     14 F           0.7840    2.5640   32.3940 F       1  UNL1       -0.1643
     15 C           3.7910   -1.1830   37.5300 C.3     1  UNL1       -0.0209
     16 C           3.1790   -0.3100   38.6240 C.3     1  UNL1       -0.0517
     17 C           4.2900    0.4460   39.3540 C.3     1  UNL1       -0.0650
     18 C           7.2720   -1.8130   35.9420 C.3     1  UNL1        0.0927
     19 C           6.5910   -3.1760   36.0490 C.3     1  UNL1        0.0157
     20 C           7.5240   -4.0300   36.9090 C.3     1  UNL1        0.0927
     21 O           8.0300   -3.2630   38.0080 O.3     1  UNL1       -0.4918
     22 C           7.4920   -3.6880   39.1810 C.ar    1  UNL1        0.1212
     23 C           7.9940   -4.8380   39.7880 C.ar    1  UNL1       -0.0108
     24 C           7.3580   -5.3380   40.9170 C.ar    1  UNL1        0.0033
     25 C           6.2430   -4.6830   41.4410 C.ar    1  UNL1        0.0498
     26 C           7.5520   -6.4270   41.6590 C.ar    1  UNL1       -0.0363
     27 C           5.7550   -3.5270   40.8420 C.ar    1  UNL1       -0.0341
     28 N           5.8380   -5.4140   42.4730 N.ar    1  UNL1       -0.3359
     29 C           6.3830   -3.0300   39.7020 C.ar    1  UNL1       -0.0180
     30 C           6.6220   -6.4840   42.6080 C.ar    1  UNL1        0.0063
     31 C           4.7870   -5.0150   43.4220 C.3     1  UNL1        0.1201
     32 C           3.4540   -5.6500   43.0110 C.2     1  UNL1        0.3247
     33 O           3.2230   -6.8140   43.4040 O.2     1  UNL1       -0.2490
     34 O           2.6950   -4.9500   42.3060 O.3     1  UNL1       -0.4794
     35 H           6.8240    0.4886   34.3533 H       1  UNL1        0.0654
     36 H           5.0229    1.4899   32.9560 H       1  UNL1        0.0626
     37 H           3.0719   -1.9717   37.2638 H       1  UNL1        0.0315
     38 H           4.7267   -1.6069   37.9234 H       1  UNL1        0.0315
     39 H           2.4817    0.4102   38.1712 H       1  UNL1        0.0266
     40 H           2.6365   -0.9454   39.3395 H       1  UNL1        0.0266
     41 H           4.1471    0.3488   40.4403 H       1  UNL1        0.0230
     42 H           5.2663    0.0240   39.0734 H       1  UNL1        0.0230
     43 H           4.2557    1.5090   39.0734 H       1  UNL1        0.0230
     44 H           7.3945   -1.5279   34.8867 H       1  UNL1        0.0697
     45 H           8.2752   -1.8254   36.3931 H       1  UNL1        0.0697
     46 H           5.6067   -3.0777   36.5301 H       1  UNL1        0.0331
     47 H           6.4197   -3.6264   35.0602 H       1  UNL1        0.0331
     48 H           6.9680   -4.8963   37.2969 H       1  UNL1        0.0697
     49 H           8.3685   -4.3693   36.2913 H       1  UNL1        0.0697
     50 H           8.8816   -5.3426   39.3785 H       1  UNL1        0.0661
     51 H           8.3553   -7.1636   41.5102 H       1  UNL1        0.0639
     52 H           4.8810   -3.0096   41.2644 H       1  UNL1        0.0639
     53 H           6.0028   -2.1197   39.2153 H       1  UNL1        0.0655
     54 H           6.5182   -7.2725   43.3680 H       1  UNL1        0.0809
     55 H           5.0581   -5.3549   44.4324 H       1  UNL1        0.0607
     56 H           4.6866   -3.9196   43.4161 H       1  UNL1        0.0607
     57 H           1.8211   -5.3100   42.0116 H       1  UNL1        0.2951
@<TRIPOS>BOND
     1     2     1    1
     2     3     2   ar
     3     4     3   ar
     4     5     4   ar
     5     6     5   ar
     6     7     5   ar
     7     8     6   ar
     8     9     8   ar
     9     9     7   ar
    10    10     7   ar
    11    10     2   ar
    12    11     6    1
    13    12    11    1
    14    13    11    1
    15    14    11    1
    16    15    10    1
    17    16    15    1
    18    17    16    1
    19    18     1    1
    20    19    18    1
    21    20    19    1
    22    21    20    1
    23    22    21    1
    24    23    22   ar
    25    24    23   ar
    26    25    24   ar
    27    26    24   ar
    28    27    25   ar
    29    28    25   ar
    30    29    27   ar
    31    29    22   ar
    32    30    26   ar
    33    30    28   ar
    34    31    28    1
    35    32    31    1
    36    33    32    2
    37    34    32    1
    38     3    35    1
    39     4    36    1
    40    15    37    1
    41    15    38    1
    42    16    39    1
    43    16    40    1
    44    17    41    1
    45    17    42    1
    46    17    43    1
    47    18    44    1
    48    18    45    1
    49    19    46    1
    50    19    47    1
    51    20    48    1
    52    20    49    1
    53    23    50    1
    54    26    51    1
    55    27    52    1
    56    29    53    1
    57    30    54    1
    58    31    55    1
    59    31    56    1
    60    34    57    1
