@<TRIPOS>MOLECULE
HFS
 38 40 0 0 0
SMALL
GASTEIGER

@<TRIPOS>ATOM
      1 C          50.4890   99.3050   26.0150 C.ar    1  UNL1        0.2203
      2 N          50.0270  100.1480   25.0780 N.ar    1  UNL1       -0.2209
      3 O          50.6900   98.1020   25.7330 O.3     1  UNL1       -0.4920
      4 C          49.7940  101.4520   25.3310 C.ar    1  UNL1        0.0320
      5 C          50.0110  102.0360   26.5830 C.ar    1  UNL1       -0.0338
      6 C          50.4900  101.2660   27.6410 C.ar    1  UNL1        0.0150
      7 C          50.7560  101.8000   29.0160 C.ar    1  UNL1        0.1134
      8 C          51.2330  100.8980   29.9730 C.ar    1  UNL1       -0.0347
      9 C          51.4650   99.5510   29.6810 C.ar    1  UNL1       -0.0592
     10 C          51.2330   99.0160   28.4130 C.ar    1  UNL1       -0.0488
     11 C          50.7530   99.8250   27.3850 C.ar    1  UNL1        0.0454
     12 S          50.5040  103.3370   29.4050 S.O2    1  UNL1        0.0615
     13 O          50.7820  104.1780   28.2760 O.2     1  UNL1       -0.1528
     14 O          49.1200  103.4990   29.7560 O.2     1  UNL1       -0.1528
     15 N          51.4040  103.7570   30.5730 N.3     1  UNL1       -0.1753
     16 C          50.8410  103.8740   31.9240 C.3     1  UNL1        0.0217
     17 C          51.4390  102.7540   32.7810 C.3     1  UNL1       -0.0260
     18 C          52.8860  103.0640   33.1740 C.3     1  UNL1       -0.0028
     19 N          53.8590  102.6910   32.1560 N.3     1  UNL1       -0.3147
     20 C          53.6280  102.8350   30.7240 C.3     1  UNL1        0.0103
     21 C          52.8170  104.0770   30.3450 C.3     1  UNL1        0.0330
     22 H          51.0307   97.4816   26.4252 H       1  UNL1        0.2937
     23 H          49.4159  102.0854   24.5150 H       1  UNL1        0.0831
     24 H          49.8031  103.1057   26.7330 H       1  UNL1        0.0639
     25 H          51.4326  101.2619   30.9917 H       1  UNL1        0.0637
     26 H          51.8426   98.8913   30.4761 H       1  UNL1        0.0618
     27 H          51.4300   97.9504   28.2242 H       1  UNL1        0.0625
     28 H          51.1005  104.8528   32.3537 H       1  UNL1        0.0444
     29 H          49.7448  103.7883   31.8914 H       1  UNL1        0.0444
     30 H          50.8363  102.6414   33.6943 H       1  UNL1        0.0290
     31 H          51.4315  101.8252   32.1917 H       1  UNL1        0.0290
     32 H          52.9724  104.1450   33.3583 H       1  UNL1        0.0424
     33 H          53.1119  102.4677   34.0703 H       1  UNL1        0.0424
     34 H          54.7043  103.2428   32.3605 H       1  UNL1        0.1220
     35 H          54.6042  102.8926   30.2204 H       1  UNL1        0.0437
     36 H          53.0386  101.9618   30.4077 H       1  UNL1        0.0437
     37 H          53.1167  104.9291   30.9728 H       1  UNL1        0.0456
     38 H          52.9910  104.3520   29.2942 H       1  UNL1        0.0456
@<TRIPOS>BOND
     1     2     1   ar
     2     3     1    1
     3     4     2   ar
     4     5     4   ar
     5     6     5   ar
     6     7     6   ar
     7     8     7   ar
     8     9     8   ar
     9    10     9   ar
    10    11     1   ar
    11    11    10   ar
    12    11     6   ar
    13    12     7    1
    14    13    12    2
    15    14    12    2
    16    15    12    1
    17    16    15    1
    18    17    16    1
    19    18    17    1
    20    19    18    1
    21    20    19    1
    22    21    20    1
    23    21    15    1
    24     3    22    1
    25     4    23    1
    26     5    24    1
    27     8    25    1
    28     9    26    1
    29    10    27    1
    30    16    28    1
    31    16    29    1
    32    17    30    1
    33    17    31    1
    34    18    32    1
    35    18    33    1
    36    19    34    1
    37    20    35    1
    38    20    36    1
    39    21    37    1
    40    21    38    1
