@<TRIPOS>MOLECULE
IE4
 35 37 0 0 0
SMALL
GASTEIGER

@<TRIPOS>ATOM
      1 C           3.9250   -2.5240   -0.1620 C.ar    1  LIG1       -0.0450
      2 C           2.8870   -1.5970   -0.2190 C.ar    1  LIG1       -0.0491
      3 C           0.3380    1.7470   -1.2900 C.ar    1  LIG1       -0.0450
      4 C          -1.0420    1.7570   -1.2200 C.ar    1  LIG1       -0.0275
      5 C           5.2080   -2.1060    0.0210 C.ar    1  LIG1        0.0035
      6 C           3.3400    2.0030    0.0950 C.ar    1  LIG1        0.0388
      7 C           3.1880   -0.2490   -0.0860 C.ar    1  LIG1        0.0269
      8 C           2.4090    0.9940   -0.0890 C.ar    1  LIG1        0.0175
      9 C           0.9490    1.1380   -0.2530 C.ar    1  LIG1        0.0233
     10 C           4.5380    0.1560    0.1040 C.ar    1  LIG1        0.1387
     11 C          -1.5580    1.1640   -0.1410 C.ar    1  LIG1        0.1430
     12 C          -3.3000   -1.6720    0.0250 C.3     1  LIG1        0.0298
     13 C          -4.1940   -2.8030   -0.4870 C.3     1  LIG1        0.0073
     14 N           5.5170   -0.8060    0.1520 N.ar    1  LIG1       -0.3458
     15 N           4.5560    1.4750    0.2010 N.ar    1  LIG1       -0.2368
     16 N          -3.8070   -0.3880   -0.4670 N.3     1  LIG1       -0.1883
     17 N          -3.6860   -4.0900    0.0050 N.3     1  LIG1       -0.3287
     18 O          -3.3860    0.8590    1.6210 O.2     1  LIG1       -0.1525
     19 O          -3.9200    2.0770   -0.4950 O.2     1  LIG1       -0.1525
     20 S          -0.2630    0.5430    0.8740 S.2     1  LIG1       -0.0685
     21 S          -3.2780    1.0260    0.2140 S.O2    1  LIG1        0.0647
     22 H           3.7110   -3.5780   -0.2580 H       1  LIG1        0.0632
     23 H           1.8670   -1.9220   -0.3640 H       1  LIG1        0.0625
     24 H           5.9980   -2.8410    0.0630 H       1  LIG1        0.0807
     25 H           0.8830    2.1880   -2.1110 H       1  LIG1        0.0630
     26 H          -1.6580    2.2110   -1.9820 H       1  LIG1        0.0643
     27 H           6.4410   -0.5430    0.2820 H       1  LIG1        0.1668
     28 H           3.1140    3.0570    0.1430 H       1  LIG1        0.0837
     29 H          -3.3030   -1.6710    1.1150 H       1  LIG1        0.0454
     30 H          -2.2820   -1.8220   -0.3350 H       1  LIG1        0.0454
     31 H          -5.2120   -2.6530   -0.1270 H       1  LIG1        0.0435
     32 H          -4.1910   -2.8040   -1.5770 H       1  LIG1        0.0435
     33 H          -4.4520   -0.3660   -1.1900 H       1  LIG1        0.1481
     34 H          -4.2600   -4.8540   -0.3190 H       1  LIG1        0.1183
     35 H          -2.7220   -4.2240   -0.2610 H       1  LIG1        0.1183
@<TRIPOS>BOND
     1     1     2   ar
     2     1     5   ar
     3     2     7   ar
     4     3     4   ar
     5     3     9   ar
     6     4    11   ar
     7     5    14   ar
     8     6     8   ar
     9     6    15   ar
    10     7     8   ar
    11     7    10   ar
    12     8     9    1
    13     9    20   ar
    14    10    14   ar
    15    10    15   ar
    16    11    20   ar
    17    11    21    1
    18    12    13    1
    19    12    16    1
    20    13    17    1
    21    16    21    1
    22    18    21    2
    23    19    21    2
    24     1    22    1
    25     2    23    1
    26     5    24    1
    27     3    25    1
    28     4    26    1
    29    14    27    1
    30     6    28    1
    31    12    29    1
    32    12    30    1
    33    13    31    1
    34    13    32    1
    35    16    33    1
    36    17    34    1
    37    17    35    1
