IE4
  Mrv15b2303062314152D          

 21 23  0  0  0  0            999 V2000
    2.8788    1.3596    0.0000 C   0  0  0  0  0  0  0  0  0  0  0  0
    2.1643    0.9471    0.0000 C   0  0  0  0  0  0  0  0  0  0  0  0
    0.8952   -0.3474    0.0000 C   0  0  0  0  0  0  0  0  0  0  0  0
    0.4103   -1.0149    0.0000 C   0  0  0  0  0  0  0  0  0  0  0  0
    2.8788    2.1846    0.0000 C   0  0  0  0  0  0  0  0  0  0  0  0
    0.1803    1.7721    0.0000 C   0  0  0  0  0  0  0  0  0  0  0  0
    1.4498    1.3596    0.0000 C   0  0  0  0  0  0  0  0  0  0  0  0
    0.6652    1.1046    0.0000 C   0  0  0  0  0  0  0  0  0  0  0  0
    0.4103    0.3200    0.0000 C   0  0  0  0  0  0  0  0  0  0  0  0
    1.4498    2.1846    0.0000 C   0  0  0  0  0  0  0  0  0  0  0  0
   -0.3744   -0.7599    0.0000 C   0  0  0  0  0  0  0  0  0  0  0  0
   -1.6230   -2.5503    0.0000 C   0  0  0  0  0  0  0  0  0  0  0  0
   -2.2904   -3.0352    0.0000 C   0  0  0  0  0  0  0  0  0  0  0  0
    2.1643    2.5971    0.0000 N   0  0  0  0  0  0  0  0  0  0  0  0
    0.6652    2.4395    0.0000 N   0  0  0  0  0  0  0  0  0  0  0  0
   -1.7092   -1.7298    0.0000 N   0  0  0  0  0  0  0  0  0  0  0  0
   -2.2042   -3.8557    0.0000 N   0  0  0  0  0  0  0  0  0  0  0  0
   -1.5267   -0.5774    0.0000 O   0  0  0  0  0  0  0  0  0  0  0  0
   -0.5569   -1.9123    0.0000 O   0  0  0  0  0  0  0  0  0  0  0  0
   -0.3744    0.0651    0.0000 S   0  0  0  0  0  0  0  0  0  0  0  0
   -1.0418   -1.2449    0.0000 S   0  0  0  0  0  0  0  0  0  0  0  0
  1  2  4  0  0  0  0
  1  5  4  0  0  0  0
  2  7  4  0  0  0  0
  3  4  4  0  0  0  0
  3  9  4  0  0  0  0
  4 11  4  0  0  0  0
  5 14  4  0  0  0  0
  6  8  4  0  0  0  0
  6 15  4  0  0  0  0
  7  8  4  0  0  0  0
  7 10  4  0  0  0  0
  8  9  1  0  0  0  0
  9 20  4  0  0  0  0
 10 14  4  0  0  0  0
 10 15  4  0  0  0  0
 11 20  4  0  0  0  0
 11 21  1  0  0  0  0
 12 13  1  0  0  0  0
 12 16  1  0  0  0  0
 13 17  1  0  0  0  0
 16 21  1  0  0  0  0
 18 21  2  0  0  0  0
 19 21  2  0  0  0  0
M  STY  1   1 DAT
M  SAL   1  1  14
M  SDT   1 MRV_IMPLICIT_H                                        
M  SDD   1     0.0000    0.0000    DR    ALL  0       0  
M  SED   1 IMPL_H1
M  END
