IE4
  -OEChem-02242319243D

 35 37  0     0  0  0  0  0  0999 V2000
    3.9250   -2.5240   -0.1620 C   0  0  0  0  0  0  0  0  0  0  0  0
    2.8870   -1.5970   -0.2190 C   0  0  0  0  0  0  0  0  0  0  0  0
    0.3380    1.7470   -1.2900 C   0  0  0  0  0  0  0  0  0  0  0  0
   -1.0420    1.7570   -1.2200 C   0  0  0  0  0  0  0  0  0  0  0  0
    5.2080   -2.1060    0.0210 C   0  0  0  0  0  0  0  0  0  0  0  0
    3.3400    2.0030    0.0950 C   0  0  0  0  0  0  0  0  0  0  0  0
    3.1880   -0.2490   -0.0860 C   0  0  0  0  0  0  0  0  0  0  0  0
    2.4090    0.9940   -0.0890 C   0  0  0  0  0  0  0  0  0  0  0  0
    0.9490    1.1380   -0.2530 C   0  0  0  0  0  0  0  0  0  0  0  0
    4.5380    0.1560    0.1040 C   0  0  0  0  0  0  0  0  0  0  0  0
   -1.5580    1.1640   -0.1410 C   0  0  0  0  0  0  0  0  0  0  0  0
   -3.3000   -1.6720    0.0250 C   0  0  0  0  0  0  0  0  0  0  0  0
   -4.1940   -2.8030   -0.4870 C   0  0  0  0  0  0  0  0  0  0  0  0
    5.5170   -0.8060    0.1520 N   0  0  0  0  0  0  0  0  0  0  0  0
    4.5560    1.4750    0.2010 N   0  0  0  0  0  0  0  0  0  0  0  0
   -3.8070   -0.3880   -0.4670 N   0  0  0  0  0  0  0  0  0  0  0  0
   -3.6860   -4.0900    0.0050 N   0  0  0  0  0  0  0  0  0  0  0  0
   -3.3860    0.8590    1.6210 O   0  0  0  0  0  0  0  0  0  0  0  0
   -3.9200    2.0770   -0.4950 O   0  0  0  0  0  0  0  0  0  0  0  0
   -0.2630    0.5430    0.8740 S   0  0  0  0  0  0  0  0  0  0  0  0
   -3.2780    1.0260    0.2140 S   0  0  0  0  0  0  0  0  0  0  0  0
    3.7110   -3.5780   -0.2580 H   0  0  0  0  0  0  0  0  0  0  0  0
    1.8670   -1.9220   -0.3640 H   0  0  0  0  0  0  0  0  0  0  0  0
    5.9980   -2.8410    0.0630 H   0  0  0  0  0  0  0  0  0  0  0  0
    0.8830    2.1880   -2.1110 H   0  0  0  0  0  0  0  0  0  0  0  0
   -1.6580    2.2110   -1.9820 H   0  0  0  0  0  0  0  0  0  0  0  0
    6.4410   -0.5430    0.2820 H   0  0  0  0  0  0  0  0  0  0  0  0
    3.1140    3.0570    0.1430 H   0  0  0  0  0  0  0  0  0  0  0  0
   -3.3030   -1.6710    1.1150 H   0  0  0  0  0  0  0  0  0  0  0  0
   -2.2820   -1.8220   -0.3350 H   0  0  0  0  0  0  0  0  0  0  0  0
   -5.2120   -2.6530   -0.1270 H   0  0  0  0  0  0  0  0  0  0  0  0
   -4.1910   -2.8040   -1.5770 H   0  0  0  0  0  0  0  0  0  0  0  0
   -4.4520   -0.3660   -1.1900 H   0  0  0  0  0  0  0  0  0  0  0  0
   -4.2600   -4.8540   -0.3190 H   0  0  0  0  0  0  0  0  0  0  0  0
   -2.7220   -4.2240   -0.2610 H   0  0  0  0  0  0  0  0  0  0  0  0
  1  2  1  0  0  0  0
  1  5  2  0  0  0  0
  2  7  2  0  0  0  0
  3  4  1  0  0  0  0
  3  9  2  0  0  0  0
  4 11  2  0  0  0  0
  5 14  1  0  0  0  0
  6  8  2  0  0  0  0
  6 15  1  0  0  0  0
  7  8  1  0  0  0  0
  7 10  1  0  0  0  0
  8  9  1  0  0  0  0
  9 20  1  0  0  0  0
 10 14  1  0  0  0  0
 10 15  2  0  0  0  0
 11 20  1  0  0  0  0
 11 21  1  0  0  0  0
 12 13  1  0  0  0  0
 12 16  1  0  0  0  0
 13 17  1  0  0  0  0
 16 21  1  0  0  0  0
 18 21  2  0  0  0  0
 19 21  2  0  0  0  0
  1 22  1  0  0  0  0
  2 23  1  0  0  0  0
  5 24  1  0  0  0  0
  3 25  1  0  0  0  0
  4 26  1  0  0  0  0
 14 27  1  0  0  0  0
  6 28  1  0  0  0  0
 12 29  1  0  0  0  0
 12 30  1  0  0  0  0
 13 31  1  0  0  0  0
 13 32  1  0  0  0  0
 16 33  1  0  0  0  0
 17 34  1  0  0  0  0
 17 35  1  0  0  0  0
M  END
> <OPENEYE_ISO_SMILES>
c1cc-2c(cnc2[nH]c1)c3ccc(s3)S(=O)(=O)NCCN

> <OPENEYE_INCHI>
InChI=1S/C13H14N4O2S2/c14-5-7-17-21(18,19)12-4-3-11(20-12)10-8-16-13-9(10)2-1-6-15-13/h1-4,6,8,17H,5,7,14H2,(H,15,16)

> <OPENEYE_INCHIKEY>
ODZMLPDPZFTGIU-UHFFFAOYSA-N

> <FORMULA>
C13H14N4O2S2

$$$$
