@<TRIPOS>MOLECULE
I04
 64 67 0 0 0
SMALL
GASTEIGER

@<TRIPOS>ATOM
      1 N           5.4330   42.6930   16.3130 N.am    1  UNL1       -0.3067
      2 C           6.4480   41.8440   15.9950 C.2     1  UNL1        0.2443
      3 O           6.4280   41.1670   14.9800 O.2     1  UNL1       -0.2702
      4 C           7.5940   41.7370   16.8830 C.ar    1  UNL1        0.0367
      5 C           8.6110   42.6910   16.7620 C.ar    1  UNL1       -0.0490
      6 C           9.7070   42.6630   17.5830 C.ar    1  UNL1       -0.0502
      7 C           9.8050   41.6560   18.5580 C.ar    1  UNL1        0.0225
      8 C           8.7850   40.6840   18.6640 C.ar    1  UNL1       -0.0502
      9 C           7.6750   40.7150   17.8390 C.ar    1  UNL1       -0.0490
     10 C          10.9540   41.6520   19.4680 C.2     1  UNL1        0.1995
     11 O          11.2670   42.7270   20.0070 O.2     1  UNL1       -0.2864
     12 C          11.7490   40.5250   19.8720 C.ar    1  UNL1        0.1023
     13 C          13.0620   40.2570   19.3670 C.ar    1  UNL1        0.1307
     14 C          13.7710   39.1230   19.8860 C.ar    1  UNL1       -0.0158
     15 O          13.6040   41.0180   18.4820 O.3     1  UNL1       -0.5060
     16 C          13.2110   38.3040   20.8330 C.ar    1  UNL1       -0.0136
     17 C          11.8950   38.5700   21.3160 C.ar    1  UNL1        0.1561
     18 C          11.2130   39.6770   20.8350 C.ar    1  UNL1        0.1791
     19 F           9.9760   39.9550   21.3060 F       1  UNL1       -0.2008
     20 O          11.2500   37.7860   22.2450 O.3     1  UNL1       -0.4922
     21 C          11.1160   38.3270   23.5590 C.3     1  UNL1        0.0789
     22 C           4.3780   43.0430   15.4150 C.3     1  UNL1        0.0430
     23 C           3.0820   43.2670   16.2390 C.3     1  UNL1        0.0542
     24 C           2.4730   44.6920   16.3150 C.3     1  UNL1        0.0161
     25 N           3.3840   45.6260   16.9540 N.3     1  UNL1       -0.3142
     26 C           4.2130   46.3420   15.9470 C.3     1  UNL1       -0.0040
     27 C           5.3190   45.4640   15.3670 C.3     1  UNL1       -0.0387
     28 C           4.7930   44.2680   14.5540 C.3     1  UNL1       -0.0316
     29 N           1.9840   42.4450   15.7860 N.am    1  UNL1       -0.3055
     30 C           1.6470   41.2730   16.4420 C.2     1  UNL1        0.2445
     31 O           2.3120   40.9100   17.4390 O.2     1  UNL1       -0.2702
     32 C           0.4740   40.5190   15.9850 C.ar    1  UNL1        0.0396
     33 C          -0.7640   41.1900   16.0260 C.ar    1  UNL1       -0.0315
     34 C          -1.9020   40.5750   15.5820 C.ar    1  UNL1        0.0283
     35 N          -1.8480   39.2920   15.0530 N.ar    1  UNL1       -0.2632
     36 C          -0.6440   38.6040   14.9870 C.ar    1  UNL1        0.0283
     37 C           0.5170   39.2260   15.4370 C.ar    1  UNL1       -0.0315
     38 H           5.4248   43.1074   17.2559 H       1  UNL1        0.1494
     39 H           8.5288   43.4756   15.9955 H       1  UNL1        0.0625
     40 H          10.4998   43.4186   17.4804 H       1  UNL1        0.0625
     41 H           8.8753   39.8873   19.4170 H       1  UNL1        0.0625
     42 H           6.8799   39.9604   17.9304 H       1  UNL1        0.0625
     43 H          14.7843   38.9059   19.5170 H       1  UNL1        0.0655
     44 H          14.5128   40.8161   18.1452 H       1  UNL1        0.2922
     45 H          13.7758   37.4430   21.2197 H       1  UNL1        0.0656
     46 H          11.3111   37.5392   24.3015 H       1  UNL1        0.0660
     47 H          11.8386   39.1453   23.6941 H       1  UNL1        0.0660
     48 H          10.0950   38.7134   23.6941 H       1  UNL1        0.0660
     49 H           4.1769   42.2311   14.7006 H       1  UNL1        0.0517
     50 H           3.4787   43.0109   17.2325 H       1  UNL1        0.0529
     51 H           2.2575   45.0436   15.2952 H       1  UNL1        0.0443
     52 H           1.5521   44.6427   16.9145 H       1  UNL1        0.0443
     53 H           2.8375   46.3148   17.4905 H       1  UNL1        0.1220
     54 H           3.5608   46.6754   15.1263 H       1  UNL1        0.0424
     55 H           4.6932   47.1920   16.4539 H       1  UNL1        0.0424
     56 H           5.9456   46.0835   14.7086 H       1  UNL1        0.0278
     57 H           5.8840   45.0532   16.2167 H       1  UNL1        0.0278
     58 H           5.5841   43.9489   13.8595 H       1  UNL1        0.0284
     59 H           3.8848   44.6127   14.0380 H       1  UNL1        0.0284
     60 H           1.4418   42.7359   14.9600 H       1  UNL1        0.1494
     61 H          -0.8158   42.2164   16.4181 H       1  UNL1        0.0640
     62 H          -2.8666   41.1001   15.6443 H       1  UNL1        0.0830
     63 H          -0.6080   37.5809   14.5844 H       1  UNL1        0.0830
     64 H           1.4797   38.6990   15.3627 H       1  UNL1        0.0640
@<TRIPOS>BOND
     1     2     1   am
     2     3     2    2
     3     4     2    1
     4     5     4   ar
     5     6     5   ar
     6     7     6   ar
     7     8     7   ar
     8     9     8   ar
     9     9     4   ar
    10    10     7    1
    11    11    10    2
    12    12    10    1
    13    13    12   ar
    14    14    13   ar
    15    15    13    1
    16    16    14   ar
    17    17    16   ar
    18    18    17   ar
    19    18    12   ar
    20    19    18    1
    21    20    17    1
    22    21    20    1
    23    22     1    1
    24    23    22    1
    25    24    23    1
    26    25    24    1
    27    26    25    1
    28    27    26    1
    29    28    22    1
    30    28    27    1
    31    29    23    1
    32    30    29   am
    33    31    30    2
    34    32    30    1
    35    33    32   ar
    36    34    33   ar
    37    35    34   ar
    38    36    35   ar
    39    37    36   ar
    40    37    32   ar
    41     1    38    1
    42     5    39    1
    43     6    40    1
    44     8    41    1
    45     9    42    1
    46    14    43    1
    47    15    44    1
    48    16    45    1
    49    21    46    1
    50    21    47    1
    51    21    48    1
    52    22    49    1
    53    23    50    1
    54    24    51    1
    55    24    52    1
    56    25    53    1
    57    26    54    1
    58    26    55    1
    59    27    56    1
    60    27    57    1
    61    28    58    1
    62    28    59    1
    63    29    60    1
    64    33    61    1
    65    34    62    1
    66    36    63    1
    67    37    64    1
