I04
 OpenBabel10212217223D

 64 67  0  0  0  0  0  0  0  0999 V2000
    5.4330   42.6930   16.3130 N   0  0  0  0  0  0  0  0  0  0  0  0
    6.4480   41.8440   15.9950 C   0  0  0  0  0  0  0  0  0  0  0  0
    6.4280   41.1670   14.9800 O   0  0  0  0  0  0  0  0  0  0  0  0
    7.5940   41.7370   16.8830 C   0  0  0  0  0  0  0  0  0  0  0  0
    8.6110   42.6910   16.7620 C   0  0  0  0  0  0  0  0  0  0  0  0
    9.7070   42.6630   17.5830 C   0  0  0  0  0  0  0  0  0  0  0  0
    9.8050   41.6560   18.5580 C   0  0  0  0  0  0  0  0  0  0  0  0
    8.7850   40.6840   18.6640 C   0  0  0  0  0  0  0  0  0  0  0  0
    7.6750   40.7150   17.8390 C   0  0  0  0  0  0  0  0  0  0  0  0
   10.9540   41.6520   19.4680 C   0  0  0  0  0  0  0  0  0  0  0  0
   11.2670   42.7270   20.0070 O   0  0  0  0  0  0  0  0  0  0  0  0
   11.7490   40.5250   19.8720 C   0  0  0  0  0  0  0  0  0  0  0  0
   13.0620   40.2570   19.3670 C   0  0  0  0  0  0  0  0  0  0  0  0
   13.7710   39.1230   19.8860 C   0  0  0  0  0  0  0  0  0  0  0  0
   13.6040   41.0180   18.4820 O   0  0  0  0  0  0  0  0  0  0  0  0
   13.2110   38.3040   20.8330 C   0  0  0  0  0  0  0  0  0  0  0  0
   11.8950   38.5700   21.3160 C   0  0  0  0  0  0  0  0  0  0  0  0
   11.2130   39.6770   20.8350 C   0  0  0  0  0  0  0  0  0  0  0  0
    9.9760   39.9550   21.3060 F   0  0  0  0  0  0  0  0  0  0  0  0
   11.2500   37.7860   22.2450 O   0  0  0  0  0  0  0  0  0  0  0  0
   11.1160   38.3270   23.5590 C   0  0  0  0  0  0  0  0  0  0  0  0
    4.3780   43.0430   15.4150 C   0  0  1  0  0  0  0  0  0  0  0  0
    3.0820   43.2670   16.2390 C   0  0  1  0  0  0  0  0  0  0  0  0
    2.4730   44.6920   16.3150 C   0  0  0  0  0  0  0  0  0  0  0  0
    3.3840   45.6260   16.9540 N   0  0  0  0  0  0  0  0  0  0  0  0
    4.2130   46.3420   15.9470 C   0  0  0  0  0  0  0  0  0  0  0  0
    5.3190   45.4640   15.3670 C   0  0  0  0  0  0  0  0  0  0  0  0
    4.7930   44.2680   14.5540 C   0  0  0  0  0  0  0  0  0  0  0  0
    1.9840   42.4450   15.7860 N   0  0  0  0  0  0  0  0  0  0  0  0
    1.6470   41.2730   16.4420 C   0  0  0  0  0  0  0  0  0  0  0  0
    2.3120   40.9100   17.4390 O   0  0  0  0  0  0  0  0  0  0  0  0
    0.4740   40.5190   15.9850 C   0  0  0  0  0  0  0  0  0  0  0  0
   -0.7640   41.1900   16.0260 C   0  0  0  0  0  0  0  0  0  0  0  0
   -1.9020   40.5750   15.5820 C   0  0  0  0  0  0  0  0  0  0  0  0
   -1.8480   39.2920   15.0530 N   0  0  0  0  0  0  0  0  0  0  0  0
   -0.6440   38.6040   14.9870 C   0  0  0  0  0  0  0  0  0  0  0  0
    0.5170   39.2260   15.4370 C   0  0  0  0  0  0  0  0  0  0  0  0
    5.4248   43.1074   17.2559 H   0  0  0  0  0  0  0  0  0  0  0  0
    8.5288   43.4756   15.9955 H   0  0  0  0  0  0  0  0  0  0  0  0
   10.4998   43.4186   17.4804 H   0  0  0  0  0  0  0  0  0  0  0  0
    8.8753   39.8873   19.4170 H   0  0  0  0  0  0  0  0  0  0  0  0
    6.8799   39.9604   17.9304 H   0  0  0  0  0  0  0  0  0  0  0  0
   14.7843   38.9059   19.5170 H   0  0  0  0  0  0  0  0  0  0  0  0
   14.5128   40.8161   18.1452 H   0  0  0  0  0  0  0  0  0  0  0  0
   13.7758   37.4430   21.2197 H   0  0  0  0  0  0  0  0  0  0  0  0
   11.3111   37.5392   24.3015 H   0  0  0  0  0  0  0  0  0  0  0  0
   11.8386   39.1453   23.6941 H   0  0  0  0  0  0  0  0  0  0  0  0
   10.0950   38.7134   23.6941 H   0  0  0  0  0  0  0  0  0  0  0  0
    4.1769   42.2311   14.7006 H   0  0  0  0  0  0  0  0  0  0  0  0
    3.4787   43.0109   17.2325 H   0  0  0  0  0  0  0  0  0  0  0  0
    2.2575   45.0436   15.2952 H   0  0  0  0  0  0  0  0  0  0  0  0
    1.5521   44.6427   16.9145 H   0  0  0  0  0  0  0  0  0  0  0  0
    2.8375   46.3148   17.4905 H   0  0  0  0  0  0  0  0  0  0  0  0
    3.5608   46.6754   15.1263 H   0  0  0  0  0  0  0  0  0  0  0  0
    4.6932   47.1920   16.4539 H   0  0  0  0  0  0  0  0  0  0  0  0
    5.9456   46.0835   14.7086 H   0  0  0  0  0  0  0  0  0  0  0  0
    5.8840   45.0532   16.2167 H   0  0  0  0  0  0  0  0  0  0  0  0
    5.5841   43.9489   13.8595 H   0  0  0  0  0  0  0  0  0  0  0  0
    3.8848   44.6127   14.0380 H   0  0  0  0  0  0  0  0  0  0  0  0
    1.4418   42.7359   14.9600 H   0  0  0  0  0  0  0  0  0  0  0  0
   -0.8158   42.2164   16.4181 H   0  0  0  0  0  0  0  0  0  0  0  0
   -2.8666   41.1001   15.6443 H   0  0  0  0  0  0  0  0  0  0  0  0
   -0.6080   37.5809   14.5844 H   0  0  0  0  0  0  0  0  0  0  0  0
    1.4797   38.6990   15.3627 H   0  0  0  0  0  0  0  0  0  0  0  0
  1 38  1  0  0  0  0
  2  1  1  0  0  0  0
  3  2  2  0  0  0  0
  4  2  1  0  0  0  0
  5  4  2  0  0  0  0
  5 39  1  0  0  0  0
  6  5  1  0  0  0  0
  6 40  1  0  0  0  0
  7  6  2  0  0  0  0
  8  7  1  0  0  0  0
  8 41  1  0  0  0  0
  9  8  2  0  0  0  0
  9  4  1  0  0  0  0
  9 42  1  0  0  0  0
 10  7  1  0  0  0  0
 11 10  2  0  0  0  0
 12 10  1  0  0  0  0
 13 12  2  0  0  0  0
 14 13  1  0  0  0  0
 14 43  1  0  0  0  0
 15 13  1  0  0  0  0
 15 44  1  0  0  0  0
 16 14  2  0  0  0  0
 16 45  1  0  0  0  0
 17 16  1  0  0  0  0
 18 17  2  0  0  0  0
 18 12  1  0  0  0  0
 19 18  1  0  0  0  0
 20 17  1  0  0  0  0
 21 20  1  0  0  0  0
 21 46  1  0  0  0  0
 21 47  1  0  0  0  0
 21 48  1  0  0  0  0
 22  1  1  0  0  0  0
 22 49  1  6  0  0  0
 23 22  1  0  0  0  0
 23 50  1  1  0  0  0
 24 23  1  0  0  0  0
 24 51  1  0  0  0  0
 24 52  1  0  0  0  0
 25 24  1  0  0  0  0
 25 53  1  0  0  0  0
 26 25  1  0  0  0  0
 26 54  1  0  0  0  0
 26 55  1  0  0  0  0
 27 26  1  0  0  0  0
 27 56  1  0  0  0  0
 27 57  1  0  0  0  0
 28 22  1  0  0  0  0
 28 27  1  0  0  0  0
 28 58  1  0  0  0  0
 28 59  1  0  0  0  0
 29 23  1  0  0  0  0
 29 60  1  0  0  0  0
 30 29  1  0  0  0  0
 31 30  2  0  0  0  0
 32 30  1  0  0  0  0
 33 32  2  0  0  0  0
 33 61  1  0  0  0  0
 34 33  1  0  0  0  0
 34 62  1  0  0  0  0
 35 34  2  0  0  0  0
 36 35  1  0  0  0  0
 36 63  1  0  0  0  0
 37 36  2  0  0  0  0
 37 32  1  0  0  0  0
 37 64  1  0  0  0  0
M  END
$$$$
