4T4
 OpenBabel09282214123D

 94 99  0  0  0  0  0  0  0  0999 V2000
   -4.5050   -6.8030    0.4230 N   0  0  0  0  0  0  0  0  0  0  0  0
   -2.6960   -5.7450    1.2080 O   0  0  0  0  0  0  0  0  0  0  0  0
   -5.7320   -7.6160    0.6210 C   0  0  2  0  0  0  0  0  0  0  0  0
   -3.6940   -6.4040    1.4390 C   0  0  0  0  0  0  0  0  0  0  0  0
   -3.9820   -6.7460    2.8770 C   0  0  0  0  0  0  0  0  0  0  0  0
   -5.4580   -7.1330    3.1140 C   0  0  0  0  0  0  0  0  0  0  0  0
   -6.2740   -7.5540    2.0470 C   0  0  0  0  0  0  0  0  0  0  0  0
   -7.6140   -7.9160    2.2400 C   0  0  0  0  0  0  0  0  0  0  0  0
   -8.1770   -7.8760    3.5370 C   0  0  0  0  0  0  0  0  0  0  0  0
   -7.3830   -7.4640    4.6140 C   0  0  0  0  0  0  0  0  0  0  0  0
   -6.0140   -7.0910    4.4200 C   0  0  0  0  0  0  0  0  0  0  0  0
   -4.2980   -6.5130   -0.9410 C   0  0  0  0  0  0  0  0  0  0  0  0
   -3.1730   -7.0240   -1.6180 C   0  0  0  0  0  0  0  0  0  0  0  0
   -3.0460   -6.7260   -2.9740 C   0  0  0  0  0  0  0  0  0  0  0  0
   -3.9810   -5.9230   -3.6610 C   0  0  0  0  0  0  0  0  0  0  0  0
   -3.7860   -5.7130   -4.9810 N   0  0  0  0  0  0  0  0  0  0  0  0
   -5.1050   -5.4250   -2.9660 C   0  0  0  0  0  0  0  0  0  0  0  0
   -2.6500   -6.3750   -5.6660 C   0  0  0  0  0  0  0  0  0  0  0  0
   -5.2450   -5.7200   -1.6110 C   0  0  0  0  0  0  0  0  0  0  0  0
   -4.6830   -4.8900   -5.8020 C   0  0  0  0  0  0  0  0  0  0  0  0
   -5.5300   -5.6540   -6.8340 C   0  0  2  0  0  0  0  0  0  0  0  0
   -6.4110   -4.6100   -7.6040 C   0  0  0  0  0  0  0  0  0  0  0  0
   -7.3570   -5.3360   -8.6230 C   0  0  0  0  0  0  0  0  0  0  0  0
   -8.2310   -6.4770   -7.9670 C   0  0  2  0  0  0  0  0  0  0  0  0
   -7.2740   -7.5000   -7.2750 C   0  0  0  0  0  0  0  0  0  0  0  0
   -6.4280   -6.7580   -6.1910 C   0  0  0  0  0  0  0  0  0  0  0  0
   -9.2300   -7.1170   -8.9060 N   0  0  1  0  0  0  0  0  0  0  0  0
  -10.2690   -8.0630   -8.3690 C   0  0  0  0  0  0  0  0  0  0  0  0
  -10.6950   -9.0390   -9.5030 C   0  0  0  0  0  0  0  0  0  0  0  0
  -11.0460   -8.3010  -10.7250 N   0  0  0  0  0  0  0  0  0  0  0  0
  -11.8520   -8.9970  -11.6850 C   0  0  0  0  0  0  0  0  0  0  0  0
  -10.6530   -7.0060  -10.9780 C   0  0  0  0  0  0  0  0  0  0  0  0
  -10.9490   -6.3770  -11.9950 O   0  0  0  0  0  0  0  0  0  0  0  0
   -9.8020   -6.2510   -9.9800 C   0  0  0  0  0  0  0  0  0  0  0  0
   -5.4940   -9.1050    0.2470 C   0  0  0  0  0  0  0  0  0  0  0  0
   -4.4490   -9.8750    0.8370 C   0  0  0  0  0  0  0  0  0  0  0  0
   -4.2780  -11.2420    0.4700 C   0  0  0  0  0  0  0  0  0  0  0  0
   -5.1540  -11.8130   -0.4750 C   0  0  0  0  0  0  0  0  0  0  0  0
   -5.0310  -13.4940   -0.9980 Cl  0  0  0  0  0  0  0  0  0  0  0  0
   -6.1930  -11.0620   -1.0580 C   0  0  0  0  0  0  0  0  0  0  0  0
   -6.3610   -9.7150   -0.6910 C   0  0  0  0  0  0  0  0  0  0  0  0
   -9.5150   -8.2290    3.7920 O   0  0  0  0  0  0  0  0  0  0  0  0
  -10.5530   -8.1060    2.7880 C   0  0  0  0  0  0  0  0  0  0  0  0
  -11.4590   -6.9250    3.2250 C   0  0  0  0  0  0  0  0  0  0  0  0
  -11.4310   -9.3760    2.6390 C   0  0  0  0  0  0  0  0  0  0  0  0
   -8.0490   -7.4610    5.8410 O   0  0  0  0  0  0  0  0  0  0  0  0
   -7.9360   -6.3600    6.7680 C   0  0  0  0  0  0  0  0  0  0  0  0
   -6.4811   -7.1716   -0.0508 H   0  0  0  0  0  0  0  0  0  0  0  0
   -3.3446   -7.5927    3.1717 H   0  0  0  0  0  0  0  0  0  0  0  0
   -3.7728   -5.8499    3.4797 H   0  0  0  0  0  0  0  0  0  0  0  0
   -8.2277   -8.2311    1.3832 H   0  0  0  0  0  0  0  0  0  0  0  0
   -5.3986   -6.7747    5.2751 H   0  0  0  0  0  0  0  0  0  0  0  0
   -2.4225   -7.6356   -1.0959 H   0  0  0  0  0  0  0  0  0  0  0  0
   -2.1864   -7.1312   -3.5280 H   0  0  0  0  0  0  0  0  0  0  0  0
   -5.8579   -4.8141   -3.4857 H   0  0  0  0  0  0  0  0  0  0  0  0
   -1.9550   -6.7800   -4.9157 H   0  0  0  0  0  0  0  0  0  0  0  0
   -3.0283   -7.1941   -6.2953 H   0  0  0  0  0  0  0  0  0  0  0  0
   -2.1238   -5.6421   -6.2953 H   0  0  0  0  0  0  0  0  0  0  0  0
   -6.1101   -5.3260   -1.0576 H   0  0  0  0  0  0  0  0  0  0  0  0
   -5.3704   -4.3611   -5.1255 H   0  0  0  0  0  0  0  0  0  0  0  0
   -4.0298   -4.2233   -6.3842 H   0  0  0  0  0  0  0  0  0  0  0  0
   -4.8507   -6.1818   -7.5195 H   0  0  0  0  0  0  0  0  0  0  0  0
   -7.0205   -4.0475   -6.8815 H   0  0  0  0  0  0  0  0  0  0  0  0
   -5.7507   -3.9254   -8.1566 H   0  0  0  0  0  0  0  0  0  0  0  0
   -8.0334   -4.5888   -9.0636 H   0  0  0  0  0  0  0  0  0  0  0  0
   -6.7149   -5.8132   -9.3779 H   0  0  0  0  0  0  0  0  0  0  0  0
   -8.8802   -6.0203   -7.2054 H   0  0  0  0  0  0  0  0  0  0  0  0
   -7.8669   -8.2948   -6.7988 H   0  0  0  0  0  0  0  0  0  0  0  0
   -6.6047   -7.9466   -8.0251 H   0  0  0  0  0  0  0  0  0  0  0  0
   -7.1077   -6.2894   -5.4641 H   0  0  0  0  0  0  0  0  0  0  0  0
   -5.7762   -7.4922   -5.6949 H   0  0  0  0  0  0  0  0  0  0  0  0
   -9.8489   -8.6345   -7.5282 H   0  0  0  0  0  0  0  0  0  0  0  0
  -11.1434   -7.4959   -8.0170 H   0  0  0  0  0  0  0  0  0  0  0  0
   -9.8615   -9.7227   -9.7219 H   0  0  0  0  0  0  0  0  0  0  0  0
  -11.5772   -9.6041   -9.1677 H   0  0  0  0  0  0  0  0  0  0  0  0
  -12.5837   -9.6288  -11.1602 H   0  0  0  0  0  0  0  0  0  0  0  0
  -12.3823   -8.2683  -12.3157 H   0  0  0  0  0  0  0  0  0  0  0  0
  -11.2083   -9.6278  -12.3157 H   0  0  0  0  0  0  0  0  0  0  0  0
   -8.9716   -5.7742  -10.5214 H   0  0  0  0  0  0  0  0  0  0  0  0
  -10.4568   -5.5168   -9.4879 H   0  0  0  0  0  0  0  0  0  0  0  0
   -3.7753   -9.4147    1.5747 H   0  0  0  0  0  0  0  0  0  0  0  0
   -3.4732  -11.8430    0.9184 H   0  0  0  0  0  0  0  0  0  0  0  0
   -6.8670  -11.5249   -1.7938 H   0  0  0  0  0  0  0  0  0  0  0  0
   -7.1765   -9.1279   -1.1385 H   0  0  0  0  0  0  0  0  0  0  0  0
  -10.0709   -7.9478    1.8120 H   0  0  0  0  0  0  0  0  0  0  0  0
  -11.4953   -6.8777    4.3234 H   0  0  0  0  0  0  0  0  0  0  0  0
  -11.0494   -5.9833    2.8307 H   0  0  0  0  0  0  0  0  0  0  0  0
  -12.4747   -7.0766    2.8307 H   0  0  0  0  0  0  0  0  0  0  0  0
  -11.6952   -9.7582    3.6361 H   0  0  0  0  0  0  0  0  0  0  0  0
  -12.3490   -9.1245    2.0876 H   0  0  0  0  0  0  0  0  0  0  0  0
  -10.8714  -10.1460    2.0876 H   0  0  0  0  0  0  0  0  0  0  0  0
   -7.9753   -6.7428    7.7985 H   0  0  0  0  0  0  0  0  0  0  0  0
   -6.9799   -5.8409    6.6059 H   0  0  0  0  0  0  0  0  0  0  0  0
   -8.7668   -5.6575    6.6059 H   0  0  0  0  0  0  0  0  0  0  0  0
  3  1  1  0  0  0  0
  3 48  1  6  0  0  0
  4  2  2  0  0  0  0
  4  1  1  0  0  0  0
  5  4  1  0  0  0  0
  5 49  1  0  0  0  0
  5 50  1  0  0  0  0
  6  5  1  0  0  0  0
  7  6  2  0  0  0  0
  7  3  1  0  0  0  0
  8  7  1  0  0  0  0
  8 51  1  0  0  0  0
  9  8  2  0  0  0  0
 10  9  1  0  0  0  0
 11 10  2  0  0  0  0
 11  6  1  0  0  0  0
 11 52  1  0  0  0  0
 12  1  1  0  0  0  0
 13 12  2  0  0  0  0
 13 53  1  0  0  0  0
 14 13  1  0  0  0  0
 14 54  1  0  0  0  0
 15 14  2  0  0  0  0
 16 15  1  0  0  0  0
 17 15  1  0  0  0  0
 17 55  1  0  0  0  0
 18 16  1  0  0  0  0
 18 56  1  0  0  0  0
 18 57  1  0  0  0  0
 18 58  1  0  0  0  0
 19 12  1  0  0  0  0
 19 17  2  0  0  0  0
 19 59  1  0  0  0  0
 20 16  1  0  0  0  0
 20 60  1  0  0  0  0
 20 61  1  0  0  0  0
 21 20  1  0  0  0  0
 21 62  1  6  0  0  0
 22 21  1  0  0  0  0
 22 63  1  0  0  0  0
 22 64  1  0  0  0  0
 23 22  1  0  0  0  0
 23 65  1  0  0  0  0
 23 66  1  0  0  0  0
 24 23  1  0  0  0  0
 24 67  1  1  0  0  0
 25 24  1  0  0  0  0
 25 68  1  0  0  0  0
 25 69  1  0  0  0  0
 26 25  1  0  0  0  0
 26 21  1  0  0  0  0
 26 70  1  0  0  0  0
 26 71  1  0  0  0  0
 27 24  1  0  0  0  0
 27 28  1  1  0  0  0
 28 72  1  0  0  0  0
 28 73  1  0  0  0  0
 29 28  1  0  0  0  0
 29 74  1  0  0  0  0
 29 75  1  0  0  0  0
 30 29  1  0  0  0  0
 31 30  1  0  0  0  0
 31 76  1  0  0  0  0
 31 77  1  0  0  0  0
 31 78  1  0  0  0  0
 32 30  1  0  0  0  0
 33 32  2  0  0  0  0
 34 32  1  0  0  0  0
 34 27  1  0  0  0  0
 34 79  1  0  0  0  0
 34 80  1  0  0  0  0
 35  3  1  0  0  0  0
 36 35  2  0  0  0  0
 36 81  1  0  0  0  0
 37 36  1  0  0  0  0
 37 82  1  0  0  0  0
 38 37  2  0  0  0  0
 39 38  1  0  0  0  0
 40 38  1  0  0  0  0
 40 83  1  0  0  0  0
 41 40  2  0  0  0  0
 41 35  1  0  0  0  0
 41 84  1  0  0  0  0
 42  9  1  0  0  0  0
 43 42  1  0  0  0  0
 43 85  1  0  0  0  0
 44 43  1  0  0  0  0
 44 86  1  0  0  0  0
 44 87  1  0  0  0  0
 44 88  1  0  0  0  0
 45 43  1  0  0  0  0
 45 89  1  0  0  0  0
 45 90  1  0  0  0  0
 45 91  1  0  0  0  0
 46 10  1  0  0  0  0
 47 46  1  0  0  0  0
 47 92  1  0  0  0  0
 47 93  1  0  0  0  0
 47 94  1  0  0  0  0
M  END
$$$$
