@<TRIPOS>MOLECULE
4T4
 94 99 0 0 0
SMALL
GASTEIGER

@<TRIPOS>ATOM
      1 N          -4.5050   -6.8030    0.4230 N.am    1  UNL1       -0.2596
      2 O          -2.6960   -5.7450    1.2080 O.2     1  UNL1       -0.2749
      3 C          -5.7320   -7.6160    0.6210 C.3     1  UNL1        0.0815
      4 C          -3.6940   -6.4040    1.4390 C.2     1  UNL1        0.2249
      5 C          -3.9820   -6.7460    2.8770 C.3     1  UNL1        0.0501
      6 C          -5.4580   -7.1330    3.1140 C.ar    1  UNL1       -0.0297
      7 C          -6.2740   -7.5540    2.0470 C.ar    1  UNL1       -0.0150
      8 C          -7.6140   -7.9160    2.2400 C.ar    1  UNL1       -0.0107
      9 C          -8.1770   -7.8760    3.5370 C.ar    1  UNL1        0.1626
     10 C          -7.3830   -7.4640    4.6140 C.ar    1  UNL1        0.1618
     11 C          -6.0140   -7.0910    4.4200 C.ar    1  UNL1       -0.0123
     12 C          -4.2980   -6.5130   -0.9410 C.ar    1  UNL1        0.0374
     13 C          -3.1730   -7.0240   -1.6180 C.ar    1  UNL1       -0.0385
     14 C          -3.0460   -6.7260   -2.9740 C.ar    1  UNL1       -0.0389
     15 C          -3.9810   -5.9230   -3.6610 C.ar    1  UNL1        0.0296
     16 N          -3.7860   -5.7130   -4.9810 N.pl3   1  UNL1       -0.3327
     17 C          -5.1050   -5.4250   -2.9660 C.ar    1  UNL1       -0.0389
     18 C          -2.6500   -6.3750   -5.6660 C.3     1  UNL1        0.0007
     19 C          -5.2450   -5.7200   -1.6110 C.ar    1  UNL1       -0.0385
     20 C          -4.6830   -4.8900   -5.8020 C.3     1  UNL1        0.0147
     21 C          -5.5300   -5.6540   -6.8340 C.3     1  UNL1       -0.0252
     22 C          -6.4110   -4.6100   -7.6040 C.3     1  UNL1       -0.0474
     23 C          -7.3570   -5.3360   -8.6230 C.3     1  UNL1       -0.0370
     24 C          -8.2310   -6.4770   -7.9670 C.3     1  UNL1        0.0110
     25 C          -7.2740   -7.5000   -7.2750 C.3     1  UNL1       -0.0370
     26 C          -6.4280   -6.7580   -6.1910 C.3     1  UNL1       -0.0474
     27 N          -9.2300   -7.1170   -8.9060 N.3     1  UNL1       -0.2895
     28 C         -10.2690   -8.0630   -8.3690 C.3     1  UNL1        0.0155
     29 C         -10.6950   -9.0390   -9.5030 C.3     1  UNL1        0.0272
     30 N         -11.0460   -8.3010  -10.7250 N.am    1  UNL1       -0.3023
     31 C         -11.8520   -8.9970  -11.6850 C.3     1  UNL1        0.0032
     32 C         -10.6530   -7.0060  -10.9780 C.2     1  UNL1        0.2295
     33 O         -10.9490   -6.3770  -11.9950 O.2     1  UNL1       -0.2742
     34 C          -9.8020   -6.2510   -9.9800 C.3     1  UNL1        0.0762
     35 C          -5.4940   -9.1050    0.2470 C.ar    1  UNL1       -0.0222
     36 C          -4.4490   -9.8750    0.8370 C.ar    1  UNL1       -0.0551
     37 C          -4.2780  -11.2420    0.4700 C.ar    1  UNL1       -0.0431
     38 C          -5.1540  -11.8130   -0.4750 C.ar    1  UNL1        0.0410
     39 CL         -5.0310  -13.4940   -0.9980 Cl      1  UNL1       -0.0835
     40 C          -6.1930  -11.0620   -1.0580 C.ar    1  UNL1       -0.0431
     41 C          -6.3610   -9.7150   -0.6910 C.ar    1  UNL1       -0.0551
     42 O          -9.5150   -8.2290    3.7920 O.3     1  UNL1       -0.4857
     43 C         -10.5530   -8.1060    2.7880 C.3     1  UNL1        0.0948
     44 C         -11.4590   -6.9250    3.2250 C.3     1  UNL1       -0.0281
     45 C         -11.4310   -9.3760    2.6390 C.3     1  UNL1       -0.0281
     46 O          -8.0490   -7.4610    5.8410 O.3     1  UNL1       -0.4914
     47 C          -7.9360   -6.3600    6.7680 C.3     1  UNL1        0.0790
     48 H          -6.4811   -7.1716   -0.0508 H       1  UNL1        0.0604
     49 H          -3.3446   -7.5927    3.1717 H       1  UNL1        0.0407
     50 H          -3.7728   -5.8499    3.4797 H       1  UNL1        0.0407
     51 H          -8.2277   -8.2311    1.3832 H       1  UNL1        0.0659
     52 H          -5.3986   -6.7747    5.2751 H       1  UNL1        0.0658
     53 H          -2.4225   -7.6356   -1.0959 H       1  UNL1        0.0637
     54 H          -2.1864   -7.1312   -3.5280 H       1  UNL1        0.0637
     55 H          -5.8579   -4.8141   -3.4857 H       1  UNL1        0.0637
     56 H          -1.9550   -6.7800   -4.9157 H       1  UNL1        0.0428
     57 H          -3.0283   -7.1941   -6.2953 H       1  UNL1        0.0428
     58 H          -2.1238   -5.6421   -6.2953 H       1  UNL1        0.0428
     59 H          -6.1101   -5.3260   -1.0576 H       1  UNL1        0.0637
     60 H          -5.3704   -4.3611   -5.1255 H       1  UNL1        0.0466
     61 H          -4.0298   -4.2233   -6.3842 H       1  UNL1        0.0466
     62 H          -4.8507   -6.1818   -7.5195 H       1  UNL1        0.0316
     63 H          -7.0205   -4.0475   -6.8815 H       1  UNL1        0.0269
     64 H          -5.7507   -3.9254   -8.1566 H       1  UNL1        0.0269
     65 H          -8.0334   -4.5888   -9.0636 H       1  UNL1        0.0280
     66 H          -6.7149   -5.8132   -9.3779 H       1  UNL1        0.0280
     67 H          -8.8802   -6.0203   -7.2054 H       1  UNL1        0.0463
     68 H          -7.8669   -8.2948   -6.7988 H       1  UNL1        0.0280
     69 H          -6.6047   -7.9466   -8.0251 H       1  UNL1        0.0280
     70 H          -7.1077   -6.2894   -5.4641 H       1  UNL1        0.0269
     71 H          -5.7762   -7.4922   -5.6949 H       1  UNL1        0.0269
     72 H          -9.8489   -8.6345   -7.5282 H       1  UNL1        0.0442
     73 H         -11.1434   -7.4959   -8.0170 H       1  UNL1        0.0442
     74 H          -9.8615   -9.7227   -9.7219 H       1  UNL1        0.0477
     75 H         -11.5772   -9.6041   -9.1677 H       1  UNL1        0.0477
     76 H         -12.5837   -9.6288  -11.1602 H       1  UNL1        0.0428
     77 H         -12.3823   -8.2683  -12.3157 H       1  UNL1        0.0428
     78 H         -11.2083   -9.6278  -12.3157 H       1  UNL1        0.0428
     79 H          -8.9716   -5.7742  -10.5214 H       1  UNL1        0.0522
     80 H         -10.4568   -5.5168   -9.4879 H       1  UNL1        0.0522
     81 H          -3.7753   -9.4147    1.5747 H       1  UNL1        0.0621
     82 H          -3.4732  -11.8430    0.9184 H       1  UNL1        0.0632
     83 H          -6.8670  -11.5249   -1.7938 H       1  UNL1        0.0632
     84 H          -7.1765   -9.1279   -1.1385 H       1  UNL1        0.0621
     85 H         -10.0709   -7.9478    1.8120 H       1  UNL1        0.0727
     86 H         -11.4953   -6.8777    4.3234 H       1  UNL1        0.0265
     87 H         -11.0494   -5.9833    2.8307 H       1  UNL1        0.0265
     88 H         -12.4747   -7.0766    2.8307 H       1  UNL1        0.0265
     89 H         -11.6952   -9.7582    3.6361 H       1  UNL1        0.0265
     90 H         -12.3490   -9.1245    2.0876 H       1  UNL1        0.0265
     91 H         -10.8714  -10.1460    2.0876 H       1  UNL1        0.0265
     92 H          -7.9753   -6.7428    7.7985 H       1  UNL1        0.0660
     93 H          -6.9799   -5.8409    6.6059 H       1  UNL1        0.0660
     94 H          -8.7668   -5.6575    6.6059 H       1  UNL1        0.0660
@<TRIPOS>BOND
     1     3     1    1
     2     4     2    2
     3     4     1   am
     4     5     4    1
     5     6     5    1
     6     7     6   ar
     7     7     3    1
     8     8     7   ar
     9     9     8   ar
    10    10     9   ar
    11    11    10   ar
    12    11     6   ar
    13    12     1    1
    14    13    12   ar
    15    14    13   ar
    16    15    14   ar
    17    16    15    1
    18    17    15   ar
    19    18    16    1
    20    19    12   ar
    21    19    17   ar
    22    20    16    1
    23    21    20    1
    24    22    21    1
    25    23    22    1
    26    24    23    1
    27    25    24    1
    28    26    25    1
    29    26    21    1
    30    27    24    1
    31    28    27    1
    32    29    28    1
    33    30    29    1
    34    31    30    1
    35    32    30   am
    36    33    32    2
    37    34    32    1
    38    34    27    1
    39    35     3    1
    40    36    35   ar
    41    37    36   ar
    42    38    37   ar
    43    39    38    1
    44    40    38   ar
    45    41    40   ar
    46    41    35   ar
    47    42     9    1
    48    43    42    1
    49    44    43    1
    50    45    43    1
    51    46    10    1
    52    47    46    1
    53     3    48    1
    54     5    49    1
    55     5    50    1
    56     8    51    1
    57    11    52    1
    58    13    53    1
    59    14    54    1
    60    17    55    1
    61    18    56    1
    62    18    57    1
    63    18    58    1
    64    19    59    1
    65    20    60    1
    66    20    61    1
    67    21    62    1
    68    22    63    1
    69    22    64    1
    70    23    65    1
    71    23    66    1
    72    24    67    1
    73    25    68    1
    74    25    69    1
    75    26    70    1
    76    26    71    1
    77    28    72    1
    78    28    73    1
    79    29    74    1
    80    29    75    1
    81    31    76    1
    82    31    77    1
    83    31    78    1
    84    34    79    1
    85    34    80    1
    86    36    81    1
    87    37    82    1
    88    40    83    1
    89    41    84    1
    90    43    85    1
    91    44    86    1
    92    44    87    1
    93    44    88    1
    94    45    89    1
    95    45    90    1
    96    45    91    1
    97    47    92    1
    98    47    93    1
    99    47    94    1
