130
 OpenBabel11072215043D

 41 44  0  0  0  0  0  0  0  0999 V2000
   13.2260  -11.7250   21.3720 C   0  0  0  0  0  0  0  0  0  0  0  0
   12.6010  -12.9400   21.0380 C   0  0  0  0  0  0  0  0  0  0  0  0
   13.3580  -14.0660   20.7180 C   0  0  0  0  0  0  0  0  0  0  0  0
   15.6610  -14.8040   20.5060 N   0  0  0  0  0  0  0  0  0  0  0  0
   14.7270  -13.9480   20.7370 C   0  0  0  0  0  0  0  0  0  0  0  0
   16.6590  -12.9110   21.0380 N   0  0  0  0  0  0  0  0  0  0  0  0
   15.3530  -12.7940   21.0600 C   0  0  0  0  0  0  0  0  0  0  0  0
   14.6290  -11.6490   21.3880 C   0  0  0  0  0  0  0  0  0  0  0  0
   16.7980  -14.1920   20.6830 C   0  0  0  0  0  0  0  0  0  0  0  0
   18.0250  -14.7880   20.3770 C   0  0  0  0  0  0  0  0  0  0  0  0
   18.5430  -14.7790   19.0580 C   0  0  0  0  0  0  0  0  0  0  0  0
   17.7950  -14.2230   18.0400 O   0  0  0  0  0  0  0  0  0  0  0  0
   19.8000  -15.3630   18.7980 C   0  0  0  0  0  0  0  0  0  0  0  0
   20.4990  -15.9520   19.8610 C   0  0  0  0  0  0  0  0  0  0  0  0
   19.9940  -15.9650   21.1480 C   0  0  0  0  0  0  0  0  0  0  0  0
   18.7710  -15.3860   21.4060 C   0  0  0  0  0  0  0  0  0  0  0  0
   20.4500  -15.3570   17.5480 C   0  0  0  0  0  0  0  0  0  0  0  0
   20.9080  -14.1930   16.9310 C   0  0  0  0  0  0  0  0  0  0  0  0
   21.5120  -14.2520   15.6770 C   0  0  0  0  0  0  0  0  0  0  0  0
   21.6610  -15.4710   15.0110 C   0  0  0  0  0  0  0  0  0  0  0  0
   21.2140  -16.6420   15.6110 C   0  0  0  0  0  0  0  0  0  0  0  0
   20.6120  -16.5910   16.8680 C   0  0  0  0  0  0  0  0  0  0  0  0
   12.4500  -10.6230   21.6760 C   0  0  0  0  0  0  0  0  0  0  0  0
   12.0110  -10.4590   22.9070 N   0  0  0  0  0  0  0  0  0  0  0  0
   12.1730   -9.7670   20.7330 N   0  0  0  0  0  0  0  0  0  0  0  0
   11.5028  -13.0024   21.0292 H   0  0  0  0  0  0  0  0  0  0  0  0
   12.8745  -15.0193   20.4584 H   0  0  0  0  0  0  0  0  0  0  0  0
   15.5333  -15.7887   20.2324 H   0  0  0  0  0  0  0  0  0  0  0  0
   15.1416  -10.7122   21.6520 H   0  0  0  0  0  0  0  0  0  0  0  0
   18.1483  -14.2120   17.1153 H   0  0  0  0  0  0  0  0  0  0  0  0
   21.4766  -16.4168   19.6656 H   0  0  0  0  0  0  0  0  0  0  0  0
   20.5658  -16.4352   21.9616 H   0  0  0  0  0  0  0  0  0  0  0  0
   18.3733  -15.3920   22.4316 H   0  0  0  0  0  0  0  0  0  0  0  0
   20.7917  -13.2233   17.4372 H   0  0  0  0  0  0  0  0  0  0  0  0
   21.8761  -13.3273   15.2054 H   0  0  0  0  0  0  0  0  0  0  0  0
   22.1299  -15.5037   14.0165 H   0  0  0  0  0  0  0  0  0  0  0  0
   21.3346  -17.6065   15.0960 H   0  0  0  0  0  0  0  0  0  0  0  0
   20.2581  -17.5203   17.3383 H   0  0  0  0  0  0  0  0  0  0  0  0
   11.4319   -9.6404   23.1425 H   0  0  0  0  0  0  0  0  0  0  0  0
   11.5959   -8.9398   20.9416 H   0  0  0  0  0  0  0  0  0  0  0  0
   12.5312   -9.9178   19.7791 H   0  0  0  0  0  0  0  0  0  0  0  0
  2  1  2  0  0  0  0
  2 26  1  0  0  0  0
  3  2  1  0  0  0  0
  3 27  1  0  0  0  0
  4 28  1  0  0  0  0
  5  4  1  0  0  0  0
  5  3  2  0  0  0  0
  7  5  1  0  0  0  0
  7  6  1  0  0  0  0
  8  7  2  0  0  0  0
  8  1  1  0  0  0  0
  8 29  1  0  0  0  0
  9  4  1  0  0  0  0
  9  6  2  0  0  0  0
 10  9  1  0  0  0  0
 11 10  2  0  0  0  0
 12 11  1  0  0  0  0
 12 30  1  0  0  0  0
 13 11  1  0  0  0  0
 14 13  2  0  0  0  0
 14 31  1  0  0  0  0
 15 14  1  0  0  0  0
 15 32  1  0  0  0  0
 16 15  2  0  0  0  0
 16 10  1  0  0  0  0
 16 33  1  0  0  0  0
 17 13  1  0  0  0  0
 18 17  2  0  0  0  0
 18 34  1  0  0  0  0
 19 18  1  0  0  0  0
 19 35  1  0  0  0  0
 20 19  2  0  0  0  0
 20 36  1  0  0  0  0
 21 20  1  0  0  0  0
 21 37  1  0  0  0  0
 22 21  2  0  0  0  0
 22 17  1  0  0  0  0
 22 38  1  0  0  0  0
 23  1  1  0  0  0  0
 24 23  2  0  0  0  0
 24 39  1  0  0  0  0
 25 23  1  0  0  0  0
 25 40  1  0  0  0  0
 25 41  1  0  0  0  0
M  END
$$$$
