@<TRIPOS>MOLECULE
130
 41 44 0 0 0
SMALL
GASTEIGER

@<TRIPOS>ATOM
      1 C          13.2260  -11.7250   21.3720 C.ar    1  UNL1        0.0668
      2 C          12.6010  -12.9400   21.0380 C.ar    1  UNL1       -0.0448
      3 C          13.3580  -14.0660   20.7180 C.ar    1  UNL1       -0.0354
      4 N          15.6610  -14.8040   20.5060 N.ar    1  UNL1       -0.3378
      5 C          14.7270  -13.9480   20.7370 C.ar    1  UNL1        0.0665
      6 N          16.6590  -12.9110   21.0380 N.ar    1  UNL1       -0.2276
      7 C          15.3530  -12.7940   21.0600 C.ar    1  UNL1        0.0903
      8 C          14.6290  -11.6490   21.3880 C.ar    1  UNL1       -0.0194
      9 C          16.7980  -14.1920   20.6830 C.ar    1  UNL1        0.1428
     10 C          18.0250  -14.7880   20.3770 C.ar    1  UNL1        0.0592
     11 C          18.5430  -14.7790   19.0580 C.ar    1  UNL1        0.1351
     12 O          17.7950  -14.2230   18.0400 O.3     1  UNL1       -0.5054
     13 C          19.8000  -15.3630   18.7980 C.ar    1  UNL1        0.0243
     14 C          20.4990  -15.9520   19.8610 C.ar    1  UNL1       -0.0505
     15 C          19.9940  -15.9650   21.1480 C.ar    1  UNL1       -0.0603
     16 C          18.7710  -15.3860   21.4060 C.ar    1  UNL1       -0.0476
     17 C          20.4500  -15.3570   17.5480 C.ar    1  UNL1       -0.0144
     18 C          20.9080  -14.1930   16.9310 C.ar    1  UNL1       -0.0539
     19 C          21.5120  -14.2520   15.6770 C.ar    1  UNL1       -0.0612
     20 C          21.6610  -15.4710   15.0110 C.ar    1  UNL1       -0.0617
     21 C          21.2140  -16.6420   15.6110 C.ar    1  UNL1       -0.0612
     22 C          20.6120  -16.5910   16.8680 C.ar    1  UNL1       -0.0539
     23 C          12.4500  -10.6230   21.6760 C.2     1  UNL1        0.3082
     24 N          12.0110  -10.4590   22.9070 N.2     1  UNL1       -0.0994
     25 N          12.1730   -9.7670   20.7330 N.pl3   1  UNL1       -0.2466
     26 H          11.5028  -13.0024   21.0292 H       1  UNL1        0.0627
     27 H          12.8745  -15.0193   20.4584 H       1  UNL1        0.0639
     28 H          15.5333  -15.7887   20.2324 H       1  UNL1        0.1674
     29 H          15.1416  -10.7122   21.6520 H       1  UNL1        0.0648
     30 H          18.1483  -14.2120   17.1153 H       1  UNL1        0.2922
     31 H          21.4766  -16.4168   19.6656 H       1  UNL1        0.0625
     32 H          20.5658  -16.4352   21.9616 H       1  UNL1        0.0618
     33 H          18.3733  -15.3920   22.4316 H       1  UNL1        0.0626
     34 H          20.7917  -13.2233   17.4372 H       1  UNL1        0.0624
     35 H          21.8761  -13.3273   15.2054 H       1  UNL1        0.0618
     36 H          22.1299  -15.5037   14.0165 H       1  UNL1        0.0618
     37 H          21.3346  -17.6065   15.0960 H       1  UNL1        0.0618
     38 H          20.2581  -17.5203   17.3383 H       1  UNL1        0.0624
     39 H          11.4319   -9.6404   23.1425 H       1  UNL1        0.3633
     40 H          11.5959   -8.9398   20.9416 H       1  UNL1        0.2884
     41 H          12.5312   -9.9178   19.7791 H       1  UNL1        0.2884
@<TRIPOS>BOND
     1     2     1   ar
     2     3     2   ar
     3     5     4   ar
     4     5     3   ar
     5     7     5   ar
     6     7     6   ar
     7     8     7   ar
     8     8     1   ar
     9     9     4   ar
    10     9     6   ar
    11    10     9    1
    12    11    10   ar
    13    12    11    1
    14    13    11   ar
    15    14    13   ar
    16    15    14   ar
    17    16    15   ar
    18    16    10   ar
    19    17    13    1
    20    18    17   ar
    21    19    18   ar
    22    20    19   ar
    23    21    20   ar
    24    22    21   ar
    25    22    17   ar
    26    23     1    1
    27    24    23    2
    28    25    23    1
    29     2    26    1
    30     3    27    1
    31     4    28    1
    32     8    29    1
    33    12    30    1
    34    14    31    1
    35    15    32    1
    36    16    33    1
    37    18    34    1
    38    19    35    1
    39    20    36    1
    40    21    37    1
    41    22    38    1
    42    24    39    1
    43    25    40    1
    44    25    41    1
