509
 OpenBabel11032217033D

 29 30  0  0  0  0  0  0  0  0999 V2000
   45.2490   15.6230    0.2960 S   0  0  0  0  0  0  0  0  0  0  0  0
   45.7990   14.4500    1.4050 C   0  0  0  0  0  0  0  0  0  0  0  0
   45.4930   13.2100    0.9320 C   0  0  0  0  0  0  0  0  0  0  0  0
   44.8090   13.1690   -0.3020 C   0  0  0  0  0  0  0  0  0  0  0  0
   44.6130   14.4450   -0.7750 C   0  0  0  0  0  0  0  0  0  0  0  0
   45.8930   11.6330    1.8510 Br  0  0  0  0  0  0  0  0  0  0  0  0
   46.5080   14.7950    2.6300 C   0  0  0  0  0  0  0  0  0  0  0  0
   45.8960   14.5640    3.8750 C   0  0  0  0  0  0  0  0  0  0  0  0
   46.5720   14.9100    5.0500 C   0  0  0  0  0  0  0  0  0  0  0  0
   47.8360   15.5080    4.9830 C   0  0  0  0  0  0  0  0  0  0  0  0
   48.4450   15.7510    3.7480 C   0  0  0  0  0  0  0  0  0  0  0  0
   47.7770   15.3990    2.5710 C   0  0  0  0  0  0  0  0  0  0  0  0
   43.8920   14.8460   -2.1090 C   0  0  0  0  0  0  0  0  0  0  0  0
   42.9260   15.6490   -1.9660 O   0  0  0  0  0  0  0  0  0  0  0  0
   44.3150   14.3340   -3.1890 O   0  0  0  0  0  0  0  0  0  0  0  0
   44.4250   12.0220   -0.9090 O   0  0  0  0  0  0  0  0  0  0  0  0
   45.4250   11.4220   -1.7460 C   0  0  0  0  0  0  0  0  0  0  0  0
   44.7350   10.7440   -2.9410 C   0  0  0  0  0  0  0  0  0  0  0  0
   45.1590   11.0990   -4.0600 O   0  0  0  0  0  0  0  0  0  0  0  0
   43.8230    9.9150   -2.7200 O   0  0  0  0  0  0  0  0  0  0  0  0
   44.8932   14.1146    3.9246 H   0  0  0  0  0  0  0  0  0  0  0  0
   46.1095   14.7118    6.0282 H   0  0  0  0  0  0  0  0  0  0  0  0
   48.3552   15.7895    5.9110 H   0  0  0  0  0  0  0  0  0  0  0  0
   49.4412   16.2152    3.7027 H   0  0  0  0  0  0  0  0  0  0  0  0
   48.2456   15.5952    1.5954 H   0  0  0  0  0  0  0  0  0  0  0  0
   43.8828   14.5654   -4.0491 H   0  0  0  0  0  0  0  0  0  0  0  0
   46.1154   12.1973   -2.1098 H   0  0  0  0  0  0  0  0  0  0  0  0
   45.9922   10.6752   -1.1711 H   0  0  0  0  0  0  0  0  0  0  0  0
   43.3666    9.4678   -3.4762 H   0  0  0  0  0  0  0  0  0  0  0  0
  2  1  1  0  0  0  0
  3  2  2  0  0  0  0
  4  3  1  0  0  0  0
  5  4  2  0  0  0  0
  5  1  1  0  0  0  0
  6  3  1  0  0  0  0
  7  2  1  0  0  0  0
  8  7  2  0  0  0  0
  8 21  1  0  0  0  0
  9  8  1  0  0  0  0
  9 22  1  0  0  0  0
 10  9  2  0  0  0  0
 10 23  1  0  0  0  0
 11 10  1  0  0  0  0
 11 24  1  0  0  0  0
 12 11  2  0  0  0  0
 12  7  1  0  0  0  0
 12 25  1  0  0  0  0
 13  5  1  0  0  0  0
 14 13  2  0  0  0  0
 15 13  1  0  0  0  0
 15 26  1  0  0  0  0
 16  4  1  0  0  0  0
 17 16  1  0  0  0  0
 17 27  1  0  0  0  0
 17 28  1  0  0  0  0
 18 17  1  0  0  0  0
 19 18  2  0  0  0  0
 20 18  1  0  0  0  0
 20 29  1  0  0  0  0
M  END
$$$$
