@<TRIPOS>MOLECULE
509
 29 30 0 0 0
SMALL
GASTEIGER

@<TRIPOS>ATOM
      1 S          45.2490   15.6230    0.2960 S.2     1  UNL1       -0.0770
      2 C          45.7990   14.4500    1.4050 C.ar    1  UNL1        0.0377
      3 C          45.4930   13.2100    0.9320 C.ar    1  UNL1        0.0751
      4 C          44.8090   13.1690   -0.3020 C.ar    1  UNL1        0.1569
      5 C          44.6130   14.4450   -0.7750 C.ar    1  UNL1        0.1393
      6 BR         45.8930   11.6330    1.8510 Br      1  UNL1       -0.0453
      7 C          46.5080   14.7950    2.6300 C.ar    1  UNL1       -0.0101
      8 C          45.8960   14.5640    3.8750 C.ar    1  UNL1       -0.0535
      9 C          46.5720   14.9100    5.0500 C.ar    1  UNL1       -0.0612
     10 C          47.8360   15.5080    4.9830 C.ar    1  UNL1       -0.0617
     11 C          48.4450   15.7510    3.7480 C.ar    1  UNL1       -0.0612
     12 C          47.7770   15.3990    2.5710 C.ar    1  UNL1       -0.0535
     13 C          43.8920   14.8460   -2.1090 C.2     1  UNL1        0.3471
     14 O          42.9260   15.6490   -1.9660 O.2     1  UNL1       -0.2444
     15 O          44.3150   14.3340   -3.1890 O.3     1  UNL1       -0.4767
     16 O          44.4250   12.0220   -0.9090 O.3     1  UNL1       -0.4783
     17 C          45.4250   11.4220   -1.7460 C.3     1  UNL1        0.1858
     18 C          44.7350   10.7440   -2.9410 C.2     1  UNL1        0.3427
     19 O          45.1590   11.0990   -4.0600 O.2     1  UNL1       -0.2472
     20 O          43.8230    9.9150   -2.7200 O.3     1  UNL1       -0.4783
     21 H          44.8932   14.1146    3.9246 H       1  UNL1        0.0624
     22 H          46.1095   14.7118    6.0282 H       1  UNL1        0.0618
     23 H          48.3552   15.7895    5.9110 H       1  UNL1        0.0618
     24 H          49.4412   16.2152    3.7027 H       1  UNL1        0.0618
     25 H          48.2456   15.5952    1.5954 H       1  UNL1        0.0624
     26 H          43.8828   14.5654   -4.0491 H       1  UNL1        0.2954
     27 H          46.1154   12.1973   -2.1098 H       1  UNL1        0.0815
     28 H          45.9922   10.6752   -1.1711 H       1  UNL1        0.0815
     29 H          43.3666    9.4678   -3.4762 H       1  UNL1        0.2952
@<TRIPOS>BOND
     1     2     1   ar
     2     3     2   ar
     3     4     3   ar
     4     5     4   ar
     5     5     1   ar
     6     6     3    1
     7     7     2    1
     8     8     7   ar
     9     9     8   ar
    10    10     9   ar
    11    11    10   ar
    12    12    11   ar
    13    12     7   ar
    14    13     5    1
    15    14    13    2
    16    15    13    1
    17    16     4    1
    18    17    16    1
    19    18    17    1
    20    19    18    2
    21    20    18    1
    22     8    21    1
    23     9    22    1
    24    10    23    1
    25    11    24    1
    26    12    25    1
    27    15    26    1
    28    17    27    1
    29    17    28    1
    30    20    29    1
