4RX
  -OEChem-05272219043D

 44 47  0     1  0  0  0  0  0999 V2000
    0.2610   -1.1480    0.2340 C   0  0  2  0  0  0  0  0  0  0  0  0
    1.1700   -0.0920    0.8670 C   0  0  0  0  0  0  0  0  0  0  0  0
    2.6020   -0.6260    0.9150 C   0  0  1  0  0  0  0  0  0  0  0  0
    3.0820   -0.9140   -0.5090 C   0  0  2  0  0  0  0  0  0  0  0  0
    3.1740    1.5000   -0.9410 C   0  0  0  0  0  0  0  0  0  0  0  0
   -5.9010   -1.3940    0.0160 C   0  0  0  0  0  0  0  0  0  0  0  0
   -4.6100   -1.8780    0.0660 C   0  0  0  0  0  0  0  0  0  0  0  0
   -6.1310   -0.0300   -0.0050 C   0  0  0  0  0  0  0  0  0  0  0  0
   -3.7730    0.3860    0.0750 C   0  0  0  0  0  0  0  0  0  0  0  0
   -3.5350   -0.9890    0.0970 C   0  0  0  0  0  0  0  0  0  0  0  0
   -5.0700    0.8580    0.0300 C   0  0  0  0  0  0  0  0  0  0  0  0
   -2.1490   -1.5020    0.1510 C   0  0  0  0  0  0  0  0  0  0  0  0
    0.7440   -1.4620   -1.1830 C   0  0  0  0  0  0  0  0  0  0  0  0
    2.1830   -1.9820   -1.1350 C   0  0  0  0  0  0  0  0  0  0  0  0
    4.9850   -0.0200    1.4500 C   0  0  0  0  0  0  0  0  0  0  0  0
    4.5250   -1.4370   -0.4300 C   0  0  0  0  0  0  0  0  0  0  0  0
    3.5310    0.4120    1.5470 C   0  0  1  0  0  0  0  0  0  0  0  0
    3.0750    0.2860   -1.3280 N   0  0  0  0  0  0  0  0  0  0  0  0
    3.2120    2.4780   -1.9070 N   0  0  0  0  0  0  0  0  0  0  0  0
   -1.1120   -0.6400    0.1800 N   0  0  0  0  0  0  0  0  0  0  0  0
   -1.9440   -2.7000    0.1700 O   0  0  0  0  0  0  0  0  0  0  0  0
    5.3340   -0.3880    0.1170 O   0  0  0  0  0  0  0  0  0  0  0  0
    3.2640    2.0070    0.7390 S   0  0  0  0  0  0  0  0  0  0  0  0
   -5.3690    2.5680    0.0030 Cl  0  0  0  0  0  0  0  0  0  0  0  0
    0.2870   -2.0570    0.8350 H   0  0  0  0  0  0  0  0  0  0  0  0
    1.1400    0.8190    0.2700 H   0  0  0  0  0  0  0  0  0  0  0  0
    0.8280    0.1240    1.8790 H   0  0  0  0  0  0  0  0  0  0  0  0
    2.6290   -1.5430    1.5020 H   0  0  0  0  0  0  0  0  0  0  0  0
   -6.7330   -2.0810   -0.0120 H   0  0  0  0  0  0  0  0  0  0  0  0
   -4.4320   -2.9430    0.0830 H   0  0  0  0  0  0  0  0  0  0  0  0
   -7.1440    0.3440   -0.0490 H   0  0  0  0  0  0  0  0  0  0  0  0
   -2.9450    1.0790    0.1020 H   0  0  0  0  0  0  0  0  0  0  0  0
    0.0990   -2.2200   -1.6260 H   0  0  0  0  0  0  0  0  0  0  0  0
    0.7050   -0.5560   -1.7880 H   0  0  0  0  0  0  0  0  0  0  0  0
    2.5250   -2.1990   -2.1470 H   0  0  0  0  0  0  0  0  0  0  0  0
    2.2220   -2.8900   -0.5340 H   0  0  0  0  0  0  0  0  0  0  0  0
    5.6230    0.8030    1.7710 H   0  0  0  0  0  0  0  0  0  0  0  0
    5.1470   -0.8730    2.1080 H   0  0  0  0  0  0  0  0  0  0  0  0
    4.5670   -2.3130    0.2180 H   0  0  0  0  0  0  0  0  0  0  0  0
    4.8800   -1.6960   -1.4270 H   0  0  0  0  0  0  0  0  0  0  0  0
    3.2680    0.5210    2.5990 H   0  0  0  0  0  0  0  0  0  0  0  0
    3.2860    3.4110   -1.6510 H   0  0  0  0  0  0  0  0  0  0  0  0
    3.1650    2.2350   -2.8450 H   0  0  0  0  0  0  0  0  0  0  0  0
   -1.2760    0.3160    0.1650 H   0  0  0  0  0  0  0  0  0  0  0  0
 12 21  2  0  0  0  0
 10 12  1  0  0  0  0
 12 20  1  0  0  0  0
  6  7  2  0  0  0  0
  7 10  1  0  0  0  0
 13 14  1  0  0  0  0
  1 13  1  0  0  0  0
  4 14  1  0  0  0  0
  6  8  1  0  0  0  0
  9 10  2  0  0  0  0
  1 20  1  0  0  0  0
  1  2  1  0  0  0  0
  8 11  2  0  0  0  0
  9 11  1  0  0  0  0
  4 16  1  0  0  0  0
 16 22  1  0  0  0  0
  3  4  1  0  0  0  0
  4 18  1  0  0  0  0
  2  3  1  0  0  0  0
  3 17  1  0  0  0  0
 11 24  1  0  0  0  0
  5 18  2  0  0  0  0
 15 22  1  0  0  0  0
 15 17  1  0  0  0  0
 17 23  1  0  0  0  0
  5 23  1  0  0  0  0
  5 19  1  0  0  0  0
  1 25  1  0  0  0  0
  2 26  1  0  0  0  0
  2 27  1  0  0  0  0
  3 28  1  0  0  0  0
  6 29  1  0  0  0  0
  7 30  1  0  0  0  0
  8 31  1  0  0  0  0
  9 32  1  0  0  0  0
 13 33  1  0  0  0  0
 13 34  1  0  0  0  0
 14 35  1  0  0  0  0
 14 36  1  0  0  0  0
 15 37  1  0  0  0  0
 15 38  1  0  0  0  0
 16 39  1  0  0  0  0
 16 40  1  0  0  0  0
 17 41  1  0  0  0  0
 19 42  1  0  0  0  0
 19 43  1  0  0  0  0
 20 44  1  0  0  0  0
M  END
> <OPENEYE_ISO_SMILES>
c1cc(cc(c1)Cl)C(=O)N[C@H]2CC[C@]34COC[C@H]([C@H]3C2)SC(=N4)N

> <OPENEYE_INCHI>
InChI=1S/C17H20ClN3O2S/c18-11-3-1-2-10(6-11)15(22)20-12-4-5-17-9-23-8-14(13(17)7-12)24-16(19)21-17/h1-3,6,12-14H,4-5,7-9H2,(H2,19,21)(H,20,22)/t12-,13+,14+,17-/m0/s1

> <OPENEYE_INCHIKEY>
SLYXQQNGVHPIRQ-CFAJVAMVSA-N

> <FORMULA>
C17H20ClN3O2S

$$$$
