4RX
  Mrv15b2303062314102D          

 24 27  0  0  0  0            999 V2000
    0.1403    0.0726    0.0000 C   0  0  2  0  0  0  0  0  0  0  0  0
    1.0123   -0.2597    0.0000 C   0  0  0  0  0  0  0  0  0  0  0  0
    1.5381    0.3695    0.0000 C   0  0  1  0  0  0  0  0  0  0  0  0
    1.3667    1.1765    0.0000 C   0  0  2  0  0  0  0  0  0  0  0  0
    2.7488    0.9607    0.0000 C   0  0  0  0  0  0  0  0  0  0  0  0
   -3.2684   -1.0730    0.0000 C   0  0  0  0  0  0  0  0  0  0  0  0
   -2.6553   -0.5211    0.0000 C   0  0  0  0  0  0  0  0  0  0  0  0
   -3.0971   -1.8800    0.0000 C   0  0  0  0  0  0  0  0  0  0  0  0
   -1.6993   -1.5831    0.0000 C   0  0  0  0  0  0  0  0  0  0  0  0
   -1.8707   -0.7761    0.0000 C   0  0  0  0  0  0  0  0  0  0  0  0
   -2.3125   -2.1351    0.0000 C   0  0  0  0  0  0  0  0  0  0  0  0
   -1.2575   -0.2242    0.0000 C   0  0  0  0  0  0  0  0  0  0  0  0
   -0.0311    0.8796    0.0000 C   0  0  0  0  0  0  0  0  0  0  0  0
    0.5821    1.4316    0.0000 C   0  0  0  0  0  0  0  0  0  0  0  0
    1.4297   -0.5316    0.0000 C   0  0  0  0  0  0  0  0  0  0  0  0
    0.7609    0.8382    0.0000 C   0  0  0  0  0  0  0  0  0  0  0  0
    2.2532   -0.4809    0.0000 C   0  0  1  0  0  0  0  0  0  0  0  0
    2.1307    1.5071    0.0000 N   0  0  0  0  0  0  0  0  0  0  0  0
    3.4902    1.3227    0.0000 N   0  0  0  0  0  0  0  0  0  0  0  0
   -0.4729   -0.4793    0.0000 N   0  0  0  0  0  0  0  0  0  0  0  0
   -1.4289    0.5828    0.0000 O   0  0  0  0  0  0  0  0  0  0  0  0
    0.8116    0.0147    0.0000 O   0  0  0  0  0  0  0  0  0  0  0  0
    2.7996    0.1372    0.0000 S   0  0  0  0  0  0  0  0  0  0  0  0
   -2.1411   -2.9421    0.0000 Cl  0  0  0  0  0  0  0  0  0  0  0  0
 12 21  2  0  0  0  0
 10 12  1  0  0  0  0
 12 20  1  0  0  0  0
  6  7  4  0  0  0  0
  7 10  4  0  0  0  0
 13 14  1  0  0  0  0
  1 13  1  0  0  0  0
  4 14  1  1  0  0  0
  6  8  4  0  0  0  0
  9 10  4  0  0  0  0
  1 20  1  1  0  0  0
  1  2  1  0  0  0  0
  8 11  4  0  0  0  0
  9 11  4  0  0  0  0
  4 16  1  0  0  0  0
 16 22  1  0  0  0  0
  3  4  1  0  0  0  0
  4 18  1  6  0  0  0
  3  2  1  1  0  0  0
  3 17  1  0  0  0  0
 11 24  1  0  0  0  0
  5 18  2  0  0  0  0
 15 22  1  0  0  0  0
 15 17  1  0  0  0  0
 17 23  1  6  0  0  0
  5 23  1  0  0  0  0
  5 19  1  0  0  0  0
M  END
