@<TRIPOS>MOLECULE
4RX
 44 47 0 0 0
SMALL
GASTEIGER

@<TRIPOS>ATOM
      1 C           0.2610   -1.1480    0.2340 C.3     1  LIG1        0.0239
      2 C           1.1700   -0.0920    0.8670 C.3     1  LIG1       -0.0283
      3 C           2.6020   -0.6260    0.9150 C.3     1  LIG1        0.0025
      4 C           3.0820   -0.9140   -0.5090 C.3     1  LIG1        0.0914
      5 C           3.1740    1.5000   -0.9410 C.2     1  LIG1        0.1476
      6 C          -5.9010   -1.3940    0.0160 C.ar    1  LIG1       -0.0597
      7 C          -4.6100   -1.8780    0.0660 C.ar    1  LIG1       -0.0495
      8 C          -6.1310   -0.0300   -0.0050 C.ar    1  LIG1       -0.0433
      9 C          -3.7730    0.3860    0.0750 C.ar    1  LIG1       -0.0313
     10 C          -3.5350   -0.9890    0.0970 C.ar    1  LIG1        0.0381
     11 C          -5.0700    0.8580    0.0300 C.ar    1  LIG1        0.0417
     12 C          -2.1490   -1.5020    0.1510 C.2     1  LIG1        0.2443
     13 C           0.7440   -1.4620   -1.1830 C.3     1  LIG1       -0.0322
     14 C           2.1830   -1.9820   -1.1350 C.3     1  LIG1       -0.0235
     15 C           4.9850   -0.0200    1.4500 C.3     1  LIG1        0.0603
     16 C           4.5250   -1.4370   -0.4300 C.3     1  LIG1        0.0732
     17 C           3.5310    0.4120    1.5470 C.3     1  LIG1        0.0409
     18 N           3.0750    0.2860   -1.3280 N.2     1  LIG1       -0.2544
     19 N           3.2120    2.4780   -1.9070 N.pl3   1  LIG1       -0.3380
     20 N          -1.1120   -0.6400    0.1800 N.am    1  LIG1       -0.3085
     21 O          -1.9440   -2.7000    0.1700 O.2     1  LIG1       -0.2702
     22 O           5.3340   -0.3880    0.1170 O.3     1  LIG1       -0.3763
     23 S           3.2640    2.0070    0.7390 S.3     1  LIG1       -0.0851
     24 CL         -5.3690    2.5680    0.0030 Cl      1  LIG1       -0.0835
     25 H           0.2870   -2.0570    0.8350 H       1  LIG1        0.0498
     26 H           1.1400    0.8190    0.2700 H       1  LIG1        0.0287
     27 H           0.8280    0.1240    1.8790 H       1  LIG1        0.0287
     28 H           2.6290   -1.5430    1.5020 H       1  LIG1        0.0337
     29 H          -6.7330   -2.0810   -0.0120 H       1  LIG1        0.0618
     30 H          -4.4320   -2.9430    0.0830 H       1  LIG1        0.0625
     31 H          -7.1440    0.3440   -0.0490 H       1  LIG1        0.0632
     32 H          -2.9450    1.0790    0.1020 H       1  LIG1        0.0640
     33 H           0.0990   -2.2200   -1.6260 H       1  LIG1        0.0284
     34 H           0.7050   -0.5560   -1.7880 H       1  LIG1        0.0284
     35 H           2.5250   -2.1990   -2.1470 H       1  LIG1        0.0290
     36 H           2.2220   -2.8900   -0.5340 H       1  LIG1        0.0290
     37 H           5.6230    0.8030    1.7710 H       1  LIG1        0.0571
     38 H           5.1470   -0.8730    2.1080 H       1  LIG1        0.0571
     39 H           4.5670   -2.3130    0.2180 H       1  LIG1        0.0584
     40 H           4.8800   -1.6960   -1.4270 H       1  LIG1        0.0584
     41 H           3.2680    0.5210    2.5990 H       1  LIG1        0.0442
     42 H           3.2860    3.4110   -1.6510 H       1  LIG1        0.1442
     43 H           3.1650    2.2350   -2.8450 H       1  LIG1        0.1442
     44 H          -1.2760    0.3160    0.1650 H       1  LIG1        0.1493
@<TRIPOS>BOND
     1    12    21    2
     2    10    12    1
     3    12    20   am
     4     6     7   ar
     5     7    10   ar
     6    13    14    1
     7     1    13    1
     8     4    14    1
     9     6     8   ar
    10     9    10   ar
    11     1    20    1
    12     1     2    1
    13     8    11   ar
    14     9    11   ar
    15     4    16    1
    16    16    22    1
    17     3     4    1
    18     4    18    1
    19     2     3    1
    20     3    17    1
    21    11    24    1
    22     5    18    2
    23    15    22    1
    24    15    17    1
    25    17    23    1
    26     5    23    1
    27     5    19    1
    28     1    25    1
    29     2    26    1
    30     2    27    1
    31     3    28    1
    32     6    29    1
    33     7    30    1
    34     8    31    1
    35     9    32    1
    36    13    33    1
    37    13    34    1
    38    14    35    1
    39    14    36    1
    40    15    37    1
    41    15    38    1
    42    16    39    1
    43    16    40    1
    44    17    41    1
    45    19    42    1
    46    19    43    1
    47    20    44    1
