@<TRIPOS>MOLECULE
5TA
 51 54 0 0 0
SMALL
GASTEIGER

@<TRIPOS>ATOM
      1 C          44.9550  -13.5440   -4.0490 C.2     1  UNL1        0.4077
      2 N          46.3240  -13.8030   -3.8000 N.am    1  UNL1       -0.2336
      3 O          44.2160  -14.6910   -3.9330 O.3     1  UNL1       -0.4417
      4 C          45.0760  -15.7910   -3.6270 C.3     1  UNL1        0.1545
      5 C          46.5090  -15.2290   -3.4540 C.3     1  UNL1        0.0633
      6 O          44.4830  -12.4330   -4.3210 O.2     1  UNL1       -0.2259
      7 C          47.3650  -12.7870   -3.7880 C.ar    1  UNL1        0.0407
      8 C          48.1470  -12.5370   -4.9440 C.ar    1  UNL1       -0.0247
      9 C          49.1290  -11.5250   -4.9040 C.ar    1  UNL1        0.0270
     10 C          49.3190  -10.7790   -3.7280 C.ar    1  UNL1       -0.0462
     11 C          48.5330  -11.0260   -2.5960 C.ar    1  UNL1       -0.0588
     12 C          47.5560  -12.0300   -2.6200 C.ar    1  UNL1       -0.0401
     13 C          49.9520  -11.2290   -6.0670 C.1     1  UNL1       -0.0609
     14 C          50.6330  -10.9910   -7.0410 C.1     1  UNL1       -0.0580
     15 C          51.4280  -10.7670   -8.2300 C.ar    1  UNL1        0.0620
     16 C          51.4250   -9.5620   -8.9540 C.ar    1  UNL1        0.1445
     17 CL         50.3780   -8.1750   -8.4180 Cl      1  UNL1       -0.0607
     18 N          52.1670   -9.3530  -10.0530 N.ar    1  UNL1       -0.2423
     19 C          52.9750  -10.3450  -10.4540 C.ar    1  UNL1        0.0293
     20 C          53.0790  -11.5750   -9.7940 C.ar    1  UNL1       -0.0423
     21 C          52.2920  -11.7750   -8.6520 C.ar    1  UNL1       -0.0420
     22 C          44.5210  -16.6240   -2.4610 C.3     1  UNL1        0.1280
     23 O          43.6840  -17.6350   -3.0090 O.3     1  UNL1       -0.4882
     24 C          44.2610  -18.7820   -3.5250 C.ar    1  UNL1        0.1210
     25 C          44.3580  -18.8180   -4.9360 C.ar    1  UNL1       -0.0155
     26 C          44.9530  -19.9090   -5.5630 C.ar    1  UNL1       -0.0303
     27 C          45.4250  -20.9500   -4.7580 C.ar    1  UNL1       -0.0571
     28 C          45.3230  -20.9150   -3.3510 C.ar    1  UNL1       -0.0580
     29 C          44.7360  -19.8240   -2.7010 C.ar    1  UNL1       -0.0199
     30 C          45.1140  -19.9800   -7.0640 C.3     1  UNL1        0.0187
     31 N          46.1750  -20.9260   -7.5240 N.3     1  UNL1       -0.3261
     32 H          45.1229  -16.5259   -4.4442 H       1  UNL1        0.0785
     33 H          46.8621  -15.3465   -2.4189 H       1  UNL1        0.0507
     34 H          47.2633  -15.7405   -4.0699 H       1  UNL1        0.0507
     35 H          47.9899  -13.1247   -5.8605 H       1  UNL1        0.0648
     36 H          50.0906   -9.9956   -3.6968 H       1  UNL1        0.0630
     37 H          48.6831  -10.4294   -1.6841 H       1  UNL1        0.0619
     38 H          46.9415  -12.2246   -1.7286 H       1  UNL1        0.0636
     39 H          53.5903  -10.1833  -11.3514 H       1  UNL1        0.0830
     40 H          53.7571  -12.3598  -10.1603 H       1  UNL1        0.0633
     41 H          52.3559  -12.7204   -8.0932 H       1  UNL1        0.0631
     42 H          45.3492  -17.0855   -1.9032 H       1  UNL1        0.0734
     43 H          43.9508  -15.9858   -1.7699 H       1  UNL1        0.0734
     44 H          43.9638  -17.9850   -5.5367 H       1  UNL1        0.0657
     45 H          45.8907  -21.8241   -5.2366 H       1  UNL1        0.0621
     46 H          45.7100  -21.7564   -2.7576 H       1  UNL1        0.0619
     47 H          44.6494  -19.7809   -1.6053 H       1  UNL1        0.0654
     48 H          44.1554  -20.2996   -7.4987 H       1  UNL1        0.0471
     49 H          45.4204  -18.9771   -7.3960 H       1  UNL1        0.0471
     50 H          46.6420  -21.3424   -6.7058 H       1  UNL1        0.1185
     51 H          45.7476  -21.6716   -8.0917 H       1  UNL1        0.1185
@<TRIPOS>BOND
     1     2     1   am
     2     3     1    1
     3     4     3    1
     4     5     4    1
     5     5     2    1
     6     6     1    2
     7     7     2    1
     8     8     7   ar
     9     9     8   ar
    10    10     9   ar
    11    11    10   ar
    12    12    11   ar
    13    12     7   ar
    14    13     9    1
    15    14    13    3
    16    15    14    1
    17    16    15   ar
    18    17    16    1
    19    18    16   ar
    20    19    18   ar
    21    20    19   ar
    22    21    20   ar
    23    21    15   ar
    24    22     4    1
    25    23    22    1
    26    24    23    1
    27    25    24   ar
    28    26    25   ar
    29    27    26   ar
    30    28    27   ar
    31    29    28   ar
    32    29    24   ar
    33    30    26    1
    34    31    30    1
    35     4    32    1
    36     5    33    1
    37     5    34    1
    38     8    35    1
    39    10    36    1
    40    11    37    1
    41    12    38    1
    42    19    39    1
    43    20    40    1
    44    21    41    1
    45    22    42    1
    46    22    43    1
    47    25    44    1
    48    27    45    1
    49    28    46    1
    50    29    47    1
    51    30    48    1
    52    30    49    1
    53    31    50    1
    54    31    51    1
