5TA
 OpenBabel11102213053D

 51 54  0  0  0  0  0  0  0  0999 V2000
   44.9550  -13.5440   -4.0490 C   0  0  0  0  0  0  0  0  0  0  0  0
   46.3240  -13.8030   -3.8000 N   0  0  0  0  0  0  0  0  0  0  0  0
   44.2160  -14.6910   -3.9330 O   0  0  0  0  0  0  0  0  0  0  0  0
   45.0760  -15.7910   -3.6270 C   0  0  1  0  0  0  0  0  0  0  0  0
   46.5090  -15.2290   -3.4540 C   0  0  0  0  0  0  0  0  0  0  0  0
   44.4830  -12.4330   -4.3210 O   0  0  0  0  0  0  0  0  0  0  0  0
   47.3650  -12.7870   -3.7880 C   0  0  0  0  0  0  0  0  0  0  0  0
   48.1470  -12.5370   -4.9440 C   0  0  0  0  0  0  0  0  0  0  0  0
   49.1290  -11.5250   -4.9040 C   0  0  0  0  0  0  0  0  0  0  0  0
   49.3190  -10.7790   -3.7280 C   0  0  0  0  0  0  0  0  0  0  0  0
   48.5330  -11.0260   -2.5960 C   0  0  0  0  0  0  0  0  0  0  0  0
   47.5560  -12.0300   -2.6200 C   0  0  0  0  0  0  0  0  0  0  0  0
   49.9520  -11.2290   -6.0670 C   0  0  0  0  0  0  0  0  0  0  0  0
   50.6330  -10.9910   -7.0410 C   0  0  0  0  0  0  0  0  0  0  0  0
   51.4280  -10.7670   -8.2300 C   0  0  0  0  0  0  0  0  0  0  0  0
   51.4250   -9.5620   -8.9540 C   0  0  0  0  0  0  0  0  0  0  0  0
   50.3780   -8.1750   -8.4180 Cl  0  0  0  0  0  0  0  0  0  0  0  0
   52.1670   -9.3530  -10.0530 N   0  0  0  0  0  0  0  0  0  0  0  0
   52.9750  -10.3450  -10.4540 C   0  0  0  0  0  0  0  0  0  0  0  0
   53.0790  -11.5750   -9.7940 C   0  0  0  0  0  0  0  0  0  0  0  0
   52.2920  -11.7750   -8.6520 C   0  0  0  0  0  0  0  0  0  0  0  0
   44.5210  -16.6240   -2.4610 C   0  0  0  0  0  0  0  0  0  0  0  0
   43.6840  -17.6350   -3.0090 O   0  0  0  0  0  0  0  0  0  0  0  0
   44.2610  -18.7820   -3.5250 C   0  0  0  0  0  0  0  0  0  0  0  0
   44.3580  -18.8180   -4.9360 C   0  0  0  0  0  0  0  0  0  0  0  0
   44.9530  -19.9090   -5.5630 C   0  0  0  0  0  0  0  0  0  0  0  0
   45.4250  -20.9500   -4.7580 C   0  0  0  0  0  0  0  0  0  0  0  0
   45.3230  -20.9150   -3.3510 C   0  0  0  0  0  0  0  0  0  0  0  0
   44.7360  -19.8240   -2.7010 C   0  0  0  0  0  0  0  0  0  0  0  0
   45.1140  -19.9800   -7.0640 C   0  0  0  0  0  0  0  0  0  0  0  0
   46.1750  -20.9260   -7.5240 N   0  0  0  0  0  0  0  0  0  0  0  0
   45.1229  -16.5259   -4.4442 H   0  0  0  0  0  0  0  0  0  0  0  0
   46.8621  -15.3465   -2.4189 H   0  0  0  0  0  0  0  0  0  0  0  0
   47.2633  -15.7405   -4.0699 H   0  0  0  0  0  0  0  0  0  0  0  0
   47.9899  -13.1247   -5.8605 H   0  0  0  0  0  0  0  0  0  0  0  0
   50.0906   -9.9956   -3.6968 H   0  0  0  0  0  0  0  0  0  0  0  0
   48.6831  -10.4294   -1.6841 H   0  0  0  0  0  0  0  0  0  0  0  0
   46.9415  -12.2246   -1.7286 H   0  0  0  0  0  0  0  0  0  0  0  0
   53.5903  -10.1833  -11.3514 H   0  0  0  0  0  0  0  0  0  0  0  0
   53.7571  -12.3598  -10.1603 H   0  0  0  0  0  0  0  0  0  0  0  0
   52.3559  -12.7204   -8.0932 H   0  0  0  0  0  0  0  0  0  0  0  0
   45.3492  -17.0855   -1.9032 H   0  0  0  0  0  0  0  0  0  0  0  0
   43.9508  -15.9858   -1.7699 H   0  0  0  0  0  0  0  0  0  0  0  0
   43.9638  -17.9850   -5.5367 H   0  0  0  0  0  0  0  0  0  0  0  0
   45.8907  -21.8241   -5.2366 H   0  0  0  0  0  0  0  0  0  0  0  0
   45.7100  -21.7564   -2.7576 H   0  0  0  0  0  0  0  0  0  0  0  0
   44.6494  -19.7809   -1.6053 H   0  0  0  0  0  0  0  0  0  0  0  0
   44.1554  -20.2996   -7.4987 H   0  0  0  0  0  0  0  0  0  0  0  0
   45.4204  -18.9771   -7.3960 H   0  0  0  0  0  0  0  0  0  0  0  0
   46.6420  -21.3424   -6.7058 H   0  0  0  0  0  0  0  0  0  0  0  0
   45.7476  -21.6716   -8.0917 H   0  0  0  0  0  0  0  0  0  0  0  0
  2  1  1  0  0  0  0
  3  1  1  0  0  0  0
  4  3  1  0  0  0  0
  4 32  1  6  0  0  0
  5  4  1  0  0  0  0
  5  2  1  0  0  0  0
  5 33  1  0  0  0  0
  5 34  1  0  0  0  0
  6  1  2  0  0  0  0
  7  2  1  0  0  0  0
  8  7  2  0  0  0  0
  8 35  1  0  0  0  0
  9  8  1  0  0  0  0
 10  9  2  0  0  0  0
 10 36  1  0  0  0  0
 11 10  1  0  0  0  0
 11 37  1  0  0  0  0
 12 11  2  0  0  0  0
 12  7  1  0  0  0  0
 12 38  1  0  0  0  0
 13  9  1  0  0  0  0
 14 13  3  0  0  0  0
 15 14  1  0  0  0  0
 16 15  2  0  0  0  0
 17 16  1  0  0  0  0
 18 16  1  0  0  0  0
 19 18  2  0  0  0  0
 19 39  1  0  0  0  0
 20 19  1  0  0  0  0
 20 40  1  0  0  0  0
 21 20  2  0  0  0  0
 21 15  1  0  0  0  0
 21 41  1  0  0  0  0
 22  4  1  0  0  0  0
 22 42  1  0  0  0  0
 22 43  1  0  0  0  0
 23 22  1  0  0  0  0
 24 23  1  0  0  0  0
 25 24  2  0  0  0  0
 25 44  1  0  0  0  0
 26 25  1  0  0  0  0
 27 26  2  0  0  0  0
 27 45  1  0  0  0  0
 28 27  1  0  0  0  0
 28 46  1  0  0  0  0
 29 28  2  0  0  0  0
 29 24  1  0  0  0  0
 29 47  1  0  0  0  0
 30 26  1  0  0  0  0
 30 48  1  0  0  0  0
 30 49  1  0  0  0  0
 31 30  1  0  0  0  0
 31 50  1  0  0  0  0
 31 51  1  0  0  0  0
M  END
$$$$
