422
  -OEChem-02242319213D

 53 57  0     0  0  0  0  0  0999 V2000
   -1.6490   -1.3460    4.3640 C   0  0  0  0  0  0  0  0  0  0  0  0
   -2.4760   -0.7800    5.3350 C   0  0  0  0  0  0  0  0  0  0  0  0
   -3.6900   -1.4220    5.6520 C   0  0  0  0  0  0  0  0  0  0  0  0
   -4.0220   -2.6010    4.9830 C   0  0  0  0  0  0  0  0  0  0  0  0
   -3.1980   -3.1740    4.0080 C   0  0  0  0  0  0  0  0  0  0  0  0
   -1.9990   -2.5210    3.7100 C   0  0  0  0  0  0  0  0  0  0  0  0
   -4.7510   -1.1440    6.5600 C   0  0  0  0  0  0  0  0  0  0  0  0
   -5.6880   -2.1420    6.4260 C   0  0  0  0  0  0  0  0  0  0  0  0
   -5.2400   -3.0160    5.4730 N   0  0  0  0  0  0  0  0  0  0  0  0
   -6.9540   -2.2670    7.1650 C   0  0  0  0  0  0  0  0  0  0  0  0
   -8.1410   -2.8680    6.6860 C   0  0  0  0  0  0  0  0  0  0  0  0
   -9.0440   -2.7420    7.7360 C   0  0  0  0  0  0  0  0  0  0  0  0
   -8.3540   -2.0990    8.7280 N   0  0  0  0  0  0  0  0  0  0  0  0
   -7.0840   -1.7980    8.4110 N   0  0  0  0  0  0  0  0  0  0  0  0
   -8.5510   -3.4960    5.4980 C   0  0  0  0  0  0  0  0  0  0  0  0
   -9.8640   -3.9770    5.4140 C   0  0  0  0  0  0  0  0  0  0  0  0
  -10.7500   -3.8370    6.4840 C   0  0  0  0  0  0  0  0  0  0  0  0
  -10.3570   -3.2140    7.6720 C   0  0  0  0  0  0  0  0  0  0  0  0
  -12.0830   -4.3390    6.3640 C   0  0  0  0  0  0  0  0  0  0  0  0
   -0.3540   -0.6690    4.0210 C   0  0  0  0  0  0  0  0  0  0  0  0
   -0.5170    0.7760    3.8590 N   0  0  0  0  0  0  0  0  0  0  0  0
    0.7810    1.4150    3.6050 C   0  0  0  0  0  0  0  0  0  0  0  0
   -1.4720    1.0680    2.7820 C   0  0  0  0  0  0  0  0  0  0  0  0
   -1.6950    2.5740    2.6350 C   0  0  0  0  0  0  0  0  0  0  0  0
    0.6350    2.9330    3.4870 C   0  0  0  0  0  0  0  0  0  0  0  0
   -0.3740    3.3130    2.3980 C   0  0  0  0  0  0  0  0  0  0  0  0
   -0.5900    4.8230    2.3530 C   0  0  0  0  0  0  0  0  0  0  0  0
   -1.4800    5.1520    1.2900 N   0  0  0  0  0  0  0  0  0  0  0  0
  -13.1660   -4.7470    6.2670 N   0  0  0  0  0  0  0  0  0  0  0  0
   -2.1950    0.1390    5.8420 H   0  0  0  0  0  0  0  0  0  0  0  0
   -3.4740   -4.0920    3.5000 H   0  0  0  0  0  0  0  0  0  0  0  0
   -1.3410   -2.9470    2.9560 H   0  0  0  0  0  0  0  0  0  0  0  0
   -4.8140   -0.3010    7.2360 H   0  0  0  0  0  0  0  0  0  0  0  0
   -5.7300   -3.8470    5.1700 H   0  0  0  0  0  0  0  0  0  0  0  0
   -8.6930   -1.8360    9.6460 H   0  0  0  0  0  0  0  0  0  0  0  0
   -7.8730   -3.6120    4.6580 H   0  0  0  0  0  0  0  0  0  0  0  0
  -10.1820   -4.4640    4.4940 H   0  0  0  0  0  0  0  0  0  0  0  0
  -11.0340   -3.0970    8.5130 H   0  0  0  0  0  0  0  0  0  0  0  0
    0.3910   -0.8380    4.8070 H   0  0  0  0  0  0  0  0  0  0  0  0
    0.0620   -1.0650    3.0890 H   0  0  0  0  0  0  0  0  0  0  0  0
    1.2400    1.0140    2.6920 H   0  0  0  0  0  0  0  0  0  0  0  0
    1.4650    1.1980    4.4350 H   0  0  0  0  0  0  0  0  0  0  0  0
   -2.4360    0.5970    3.0090 H   0  0  0  0  0  0  0  0  0  0  0  0
   -1.1220    0.6500    1.8290 H   0  0  0  0  0  0  0  0  0  0  0  0
   -2.3820    2.7620    1.8010 H   0  0  0  0  0  0  0  0  0  0  0  0
   -2.1820    2.9610    3.5400 H   0  0  0  0  0  0  0  0  0  0  0  0
    0.3140    3.3460    4.4530 H   0  0  0  0  0  0  0  0  0  0  0  0
    1.6120    3.3770    3.2620 H   0  0  0  0  0  0  0  0  0  0  0  0
    0.0300    3.0050    1.4250 H   0  0  0  0  0  0  0  0  0  0  0  0
    0.3640    5.3060    2.1840 H   0  0  0  0  0  0  0  0  0  0  0  0
   -1.0190    5.1460    3.2920 H   0  0  0  0  0  0  0  0  0  0  0  0
   -2.4820    5.1010    1.4370 H   0  0  0  0  0  0  0  0  0  0  0  0
   -1.1260    5.2370    0.3430 H   0  0  0  0  0  0  0  0  0  0  0  0
  1  6  1  0  0  0  0
  1 20  1  0  0  0  0
  1  2  2  0  0  0  0
  2  3  1  0  0  0  0
  2 30  1  0  0  0  0
  3  4  2  0  0  0  0
  3  7  1  0  0  0  0
  4  5  1  0  0  0  0
  4  9  1  0  0  0  0
  5  6  2  0  0  0  0
  5 31  1  0  0  0  0
  6 32  1  0  0  0  0
  7  8  2  0  0  0  0
  7 33  1  0  0  0  0
  8  9  1  0  0  0  0
  8 10  1  0  0  0  0
  9 34  1  0  0  0  0
 10 14  2  0  0  0  0
 10 11  1  0  0  0  0
 11 12  2  0  0  0  0
 11 15  1  0  0  0  0
 12 13  1  0  0  0  0
 12 18  1  0  0  0  0
 13 14  1  0  0  0  0
 13 35  1  0  0  0  0
 15 16  2  0  0  0  0
 15 36  1  0  0  0  0
 16 17  1  0  0  0  0
 16 37  1  0  0  0  0
 17 18  2  0  0  0  0
 17 19  1  0  0  0  0
 18 38  1  0  0  0  0
 19 29  3  0  0  0  0
 20 21  1  0  0  0  0
 20 39  1  0  0  0  0
 20 40  1  0  0  0  0
 21 22  1  0  0  0  0
 21 23  1  0  0  0  0
 22 25  1  0  0  0  0
 22 41  1  0  0  0  0
 22 42  1  0  0  0  0
 23 24  1  0  0  0  0
 23 43  1  0  0  0  0
 23 44  1  0  0  0  0
 24 26  1  0  0  0  0
 24 45  1  0  0  0  0
 24 46  1  0  0  0  0
 25 26  1  0  0  0  0
 25 47  1  0  0  0  0
 25 48  1  0  0  0  0
 26 27  1  0  0  0  0
 26 49  1  0  0  0  0
 27 28  1  0  0  0  0
 27 50  1  0  0  0  0
 27 51  1  0  0  0  0
 28 52  1  0  0  0  0
 28 53  1  0  0  0  0
M  END
> <OPENEYE_ISO_SMILES>
c1cc2c(cc1CN3CCC(CC3)CN)cc([nH]2)c4c5ccc(cc5[nH]n4)C#N

> <OPENEYE_INCHI>
InChI=1S/C23H24N6/c24-12-15-5-7-29(8-6-15)14-17-2-4-20-18(9-17)11-22(26-20)23-19-3-1-16(13-25)10-21(19)27-28-23/h1-4,9-11,15,26H,5-8,12,14,24H2,(H,27,28)

> <OPENEYE_INCHIKEY>
WBKUBPBCFYCSRT-UHFFFAOYSA-N

> <FORMULA>
C23H24N6

$$$$
