422
  Mrv15b2303062313452D          

 29 33  0  0  0  0            999 V2000
   -3.0459   -1.9924    0.0000 C   0  0  0  0  0  0  0  0  0  0  0  0
   -2.4328   -1.4404    0.0000 C   0  0  0  0  0  0  0  0  0  0  0  0
   -2.6043   -0.6334    0.0000 C   0  0  0  0  0  0  0  0  0  0  0  0
   -3.3889   -0.3784    0.0000 C   0  0  0  0  0  0  0  0  0  0  0  0
   -4.0020   -0.9305    0.0000 C   0  0  0  0  0  0  0  0  0  0  0  0
   -3.8305   -1.7374    0.0000 C   0  0  0  0  0  0  0  0  0  0  0  0
   -2.1194    0.0341    0.0000 C   0  0  0  0  0  0  0  0  0  0  0  0
   -2.6043    0.7015    0.0000 C   0  0  0  0  0  0  0  0  0  0  0  0
   -3.3889    0.4466    0.0000 N   0  0  0  0  0  0  0  0  0  0  0  0
   -2.3494    1.4861    0.0000 C   0  0  0  0  0  0  0  0  0  0  0  0
   -1.5647    1.7411    0.0000 C   0  0  0  0  0  0  0  0  0  0  0  0
   -1.5647    2.5661    0.0000 C   0  0  0  0  0  0  0  0  0  0  0  0
   -2.3494    2.8210    0.0000 N   0  0  0  0  0  0  0  0  0  0  0  0
   -2.8343    2.1536    0.0000 N   0  0  0  0  0  0  0  0  0  0  0  0
   -0.8503    1.3286    0.0000 C   0  0  0  0  0  0  0  0  0  0  0  0
   -0.1358    1.7411    0.0000 C   0  0  0  0  0  0  0  0  0  0  0  0
   -0.1358    2.5661    0.0000 C   0  0  0  0  0  0  0  0  0  0  0  0
   -0.8503    2.9786    0.0000 C   0  0  0  0  0  0  0  0  0  0  0  0
    0.5787    2.9786    0.0000 C   0  0  0  0  0  0  0  0  0  0  0  0
   -2.8743   -2.7994    0.0000 C   0  0  0  0  0  0  0  0  0  0  0  0
   -3.4874   -3.3514    0.0000 N   0  0  0  0  0  0  0  0  0  0  0  0
   -3.3159   -4.1584    0.0000 C   0  0  0  0  0  0  0  0  0  0  0  0
   -4.2721   -3.0964    0.0000 C   0  0  0  0  0  0  0  0  0  0  0  0
   -4.8852   -3.6485    0.0000 C   0  0  0  0  0  0  0  0  0  0  0  0
   -3.9290   -4.7104    0.0000 C   0  0  0  0  0  0  0  0  0  0  0  0
   -4.7136   -4.4555    0.0000 C   0  0  0  0  0  0  0  0  0  0  0  0
   -5.3267   -5.0075    0.0000 C   0  0  0  0  0  0  0  0  0  0  0  0
   -5.1552   -5.8145    0.0000 N   0  0  0  0  0  0  0  0  0  0  0  0
    1.2931    3.3911    0.0000 N   0  0  0  0  0  0  0  0  0  0  0  0
  1  6  4  0  0  0  0
  1 20  1  0  0  0  0
  1  2  4  0  0  0  0
  2  3  4  0  0  0  0
  3  4  4  0  0  0  0
  3  7  4  0  0  0  0
  4  5  4  0  0  0  0
  4  9  4  0  0  0  0
  5  6  4  0  0  0  0
  7  8  4  0  0  0  0
  8  9  4  0  0  0  0
  8 10  1  0  0  0  0
 10 14  4  0  0  0  0
 10 11  4  0  0  0  0
 11 12  4  0  0  0  0
 11 15  4  0  0  0  0
 12 13  4  0  0  0  0
 12 18  4  0  0  0  0
 13 14  4  0  0  0  0
 15 16  4  0  0  0  0
 16 17  4  0  0  0  0
 17 18  4  0  0  0  0
 17 19  1  0  0  0  0
 19 29  3  0  0  0  0
 20 21  1  0  0  0  0
 21 22  1  0  0  0  0
 21 23  1  0  0  0  0
 22 25  1  0  0  0  0
 23 24  1  0  0  0  0
 24 26  1  0  0  0  0
 25 26  1  0  0  0  0
 26 27  1  0  0  0  0
 27 28  1  0  0  0  0
M  STY  2   1 DAT   2 DAT
M  SAL   1  1   9
M  SDT   1 MRV_IMPLICIT_H                                        
M  SDD   1     0.0000    0.0000    DR    ALL  0       0  
M  SED   1 IMPL_H1
M  SAL   2  1  13
M  SDT   2 MRV_IMPLICIT_H                                        
M  SDD   2     0.0000    0.0000    DR    ALL  0       0  
M  SED   2 IMPL_H1
M  END
