@<TRIPOS>MOLECULE
422
 53 57 0 0 0
SMALL
GASTEIGER

@<TRIPOS>ATOM
      1 C          -1.6490   -1.3460    4.3640 C.ar    1  LIG1       -0.0327
      2 C          -2.4760   -0.7800    5.3350 C.ar    1  LIG1       -0.0482
      3 C          -3.6900   -1.4220    5.6520 C.ar    1  LIG1        0.0006
      4 C          -4.0220   -2.6010    4.9830 C.ar    1  LIG1        0.0470
      5 C          -3.1980   -3.1740    4.0080 C.ar    1  LIG1       -0.0375
      6 C          -1.9990   -2.5210    3.7100 C.ar    1  LIG1       -0.0554
      7 C          -4.7510   -1.1440    6.5600 C.ar    1  LIG1       -0.0271
      8 C          -5.6880   -2.1420    6.4260 C.ar    1  LIG1        0.0683
      9 N          -5.2400   -3.0160    5.4730 N.ar    1  LIG1       -0.3529
     10 C          -6.9540   -2.2670    7.1650 C.ar    1  LIG1        0.1163
     11 C          -8.1410   -2.8680    6.6860 C.ar    1  LIG1        0.0289
     12 C          -9.0440   -2.7420    7.7360 C.ar    1  LIG1        0.0676
     13 N          -8.3540   -2.0990    8.7280 N.ar    1  LIG1       -0.2763
     14 N          -7.0840   -1.7980    8.4110 N.ar    1  LIG1       -0.1713
     15 C          -8.5510   -3.4960    5.4980 C.ar    1  LIG1       -0.0492
     16 C          -9.8640   -3.9770    5.4140 C.ar    1  LIG1       -0.0436
     17 C         -10.7500   -3.8370    6.4840 C.ar    1  LIG1        0.0538
     18 C         -10.3570   -3.2140    7.6720 C.ar    1  LIG1       -0.0189
     19 C         -12.0830   -4.3390    6.3640 C.1     1  LIG1        0.0992
     20 C          -0.3540   -0.6690    4.0210 C.3     1  LIG1        0.0241
     21 N          -0.5170    0.7760    3.8590 N.3     1  LIG1       -0.2981
     22 C           0.7810    1.4150    3.6050 C.3     1  LIG1       -0.0005
     23 C          -1.4720    1.0680    2.7820 C.3     1  LIG1       -0.0005
     24 C          -1.6950    2.5740    2.6350 C.3     1  LIG1       -0.0362
     25 C           0.6350    2.9330    3.4870 C.3     1  LIG1       -0.0362
     26 C          -0.3740    3.3130    2.3980 C.3     1  LIG1       -0.0264
     27 C          -0.5900    4.8230    2.3530 C.3     1  LIG1       -0.0040
     28 N          -1.4800    5.1520    1.2900 N.3     1  LIG1       -0.3297
     29 N         -13.1660   -4.7470    6.2670 N.1     1  LIG1       -0.1909
     30 H          -2.1950    0.1390    5.8420 H       1  LIG1        0.0627
     31 H          -3.4740   -4.0920    3.5000 H       1  LIG1        0.0638
     32 H          -1.3410   -2.9470    2.9560 H       1  LIG1        0.0621
     33 H          -4.8140   -0.3010    7.2360 H       1  LIG1        0.0645
     34 H          -5.7300   -3.8470    5.1700 H       1  LIG1        0.1660
     35 H          -8.6930   -1.8360    9.6460 H       1  LIG1        0.1889
     36 H          -7.8730   -3.6120    4.6580 H       1  LIG1        0.0625
     37 H         -10.1820   -4.4640    4.4940 H       1  LIG1        0.0631
     38 H         -11.0340   -3.0970    8.5130 H       1  LIG1        0.0652
     39 H           0.3910   -0.8380    4.8070 H       1  LIG1        0.0476
     40 H           0.0620   -1.0650    3.0890 H       1  LIG1        0.0476
     41 H           1.2400    1.0140    2.6920 H       1  LIG1        0.0427
     42 H           1.4650    1.1980    4.4350 H       1  LIG1        0.0427
     43 H          -2.4360    0.5970    3.0090 H       1  LIG1        0.0427
     44 H          -1.1220    0.6500    1.8290 H       1  LIG1        0.0427
     45 H          -2.3820    2.7620    1.8010 H       1  LIG1        0.0281
     46 H          -2.1820    2.9610    3.5400 H       1  LIG1        0.0281
     47 H           0.3140    3.3460    4.4530 H       1  LIG1        0.0281
     48 H           1.6120    3.3770    3.2620 H       1  LIG1        0.0281
     49 H           0.0300    3.0050    1.4250 H       1  LIG1        0.0314
     50 H           0.3640    5.3060    2.1840 H       1  LIG1        0.0425
     51 H          -1.0190    5.1460    3.2920 H       1  LIG1        0.0425
     52 H          -2.4820    5.1010    1.4370 H       1  LIG1        0.1182
     53 H          -1.1260    5.2370    0.3430 H       1  LIG1        0.1182
@<TRIPOS>BOND
     1     1     6   ar
     2     1    20    1
     3     1     2   ar
     4     2     3   ar
     5     2    30    1
     6     3     4   ar
     7     3     7   ar
     8     4     5   ar
     9     4     9   ar
    10     5     6   ar
    11     5    31    1
    12     6    32    1
    13     7     8   ar
    14     7    33    1
    15     8     9   ar
    16     8    10    1
    17     9    34    1
    18    10    14   ar
    19    10    11   ar
    20    11    12   ar
    21    11    15   ar
    22    12    13   ar
    23    12    18   ar
    24    13    14   ar
    25    13    35    1
    26    15    16   ar
    27    15    36    1
    28    16    17   ar
    29    16    37    1
    30    17    18   ar
    31    17    19    1
    32    18    38    1
    33    19    29    3
    34    20    21    1
    35    20    39    1
    36    20    40    1
    37    21    22    1
    38    21    23    1
    39    22    25    1
    40    22    41    1
    41    22    42    1
    42    23    24    1
    43    23    43    1
    44    23    44    1
    45    24    26    1
    46    24    45    1
    47    24    46    1
    48    25    26    1
    49    25    47    1
    50    25    48    1
    51    26    27    1
    52    26    49    1
    53    27    28    1
    54    27    50    1
    55    27    51    1
    56    28    52    1
    57    28    53    1
