2W1
 OpenBabel10032210033D

 51 55  0  0  0  0  0  0  0  0999 V2000
   93.2350   -4.5760   15.4640 C   0  0  0  0  0  0  0  0  0  0  0  0
   92.6770   -3.8390   14.3810 C   0  0  0  0  0  0  0  0  0  0  0  0
   92.9550   -2.4790   14.2610 C   0  0  0  0  0  0  0  0  0  0  0  0
   93.7740   -1.8520   15.1990 C   0  0  0  0  0  0  0  0  0  0  0  0
   94.3500   -2.5870   16.2850 C   0  0  0  0  0  0  0  0  0  0  0  0
   94.0710   -3.9220   16.3970 C   0  0  0  0  0  0  0  0  0  0  0  0
   94.0500   -0.4700   15.0410 O   0  0  0  0  0  0  0  0  0  0  0  0
   95.3110   -0.1520   14.4280 C   0  0  0  0  0  0  0  0  0  0  0  0
   96.3330    0.2860   15.1920 N   0  0  0  0  0  0  0  0  0  0  0  0
   97.5280    0.6220   14.6530 C   0  0  0  0  0  0  0  0  0  0  0  0
   97.7210    0.5170   13.2470 C   0  0  0  0  0  0  0  0  0  0  0  0
   96.6820    0.0790   12.4470 C   0  0  0  0  0  0  0  0  0  0  0  0
   95.4450   -0.2620   13.0060 C   0  0  0  0  0  0  0  0  0  0  0  0
   94.3200   -0.7560   12.0650 C   0  0  0  0  0  0  0  0  0  0  0  0
   94.8730   -1.7450   11.1230 C   0  0  0  0  0  0  0  0  0  0  0  0
   93.8000   -2.2840   10.1890 C   0  0  0  0  0  0  0  0  0  0  0  0
   92.9740   -1.2490    9.5690 O   0  0  0  0  0  0  0  0  0  0  0  0
   92.5020   -0.2450   10.5200 C   0  0  0  0  0  0  0  0  0  0  0  0
   93.6490    0.3100   11.3380 C   0  0  0  0  0  0  0  0  0  0  0  0
   92.9850   -6.1050   15.6590 C   0  0  0  0  0  0  0  0  0  0  0  0
   92.2060   -6.4550   16.5250 O   0  0  0  0  0  0  0  0  0  0  0  0
   93.6820   -7.1780   14.8690 C   0  0  0  0  0  0  0  0  0  0  0  0
   94.9920   -7.4530   14.8640 N   0  0  0  0  0  0  0  0  0  0  0  0
   95.1940   -8.5340   14.0100 C   0  0  0  0  0  0  0  0  0  0  0  0
   96.3760   -9.2550   13.6150 C   0  0  0  0  0  0  0  0  0  0  0  0
   93.9680   -8.8920   13.5070 C   0  0  0  0  0  0  0  0  0  0  0  0
   96.2530  -10.3340   12.6950 C   0  0  0  0  0  0  0  0  0  0  0  0
   95.0040  -10.6870   12.1920 C   0  0  0  0  0  0  0  0  0  0  0  0
   93.8490   -9.9740   12.5840 C   0  0  0  0  0  0  0  0  0  0  0  0
   93.0330   -8.0390   14.0480 N   0  0  0  0  0  0  0  0  0  0  0  0
   92.0312   -4.3396   13.6445 H   0  0  0  0  0  0  0  0  0  0  0  0
   92.5290   -1.9010   13.4276 H   0  0  0  0  0  0  0  0  0  0  0  0
   95.0041   -2.0879   17.0151 H   0  0  0  0  0  0  0  0  0  0  0  0
   94.5054   -4.4965   17.2284 H   0  0  0  0  0  0  0  0  0  0  0  0
   98.3460    0.9745   15.2984 H   0  0  0  0  0  0  0  0  0  0  0  0
   98.6903    0.7825   12.7998 H   0  0  0  0  0  0  0  0  0  0  0  0
   96.8290   -0.0023   11.3599 H   0  0  0  0  0  0  0  0  0  0  0  0
   93.5499   -1.2138   12.7033 H   0  0  0  0  0  0  0  0  0  0  0  0
   95.6613   -1.2662   10.5236 H   0  0  0  0  0  0  0  0  0  0  0  0
   95.2799   -2.5858   11.7039 H   0  0  0  0  0  0  0  0  0  0  0  0
   94.2934   -2.8570    9.3901 H   0  0  0  0  0  0  0  0  0  0  0  0
   93.1273   -2.9022   10.8016 H   0  0  0  0  0  0  0  0  0  0  0  0
   92.0237    0.5770    9.9673 H   0  0  0  0  0  0  0  0  0  0  0  0
   91.7826   -0.7204   11.2030 H   0  0  0  0  0  0  0  0  0  0  0  0
   94.3696    0.7987   10.6658 H   0  0  0  0  0  0  0  0  0  0  0  0
   93.2507    1.0371   12.0610 H   0  0  0  0  0  0  0  0  0  0  0  0
   95.7196   -6.9547   15.3961 H   0  0  0  0  0  0  0  0  0  0  0  0
   97.3604   -8.9758   14.0186 H   0  0  0  0  0  0  0  0  0  0  0  0
   97.1480  -10.8908   12.3804 H   0  0  0  0  0  0  0  0  0  0  0  0
   94.9158  -11.5255   11.4856 H   0  0  0  0  0  0  0  0  0  0  0  0
   92.8640  -10.2511   12.1803 H   0  0  0  0  0  0  0  0  0  0  0  0
  2  1  2  0  0  0  0
  2 31  1  0  0  0  0
  3  2  1  0  0  0  0
  3 32  1  0  0  0  0
  4  3  2  0  0  0  0
  5  4  1  0  0  0  0
  5 33  1  0  0  0  0
  6  5  2  0  0  0  0
  6  1  1  0  0  0  0
  6 34  1  0  0  0  0
  7  4  1  0  0  0  0
  8  7  1  0  0  0  0
  9  8  2  0  0  0  0
 10  9  1  0  0  0  0
 10 35  1  0  0  0  0
 11 10  2  0  0  0  0
 11 36  1  0  0  0  0
 12 11  1  0  0  0  0
 12 37  1  0  0  0  0
 13 12  2  0  0  0  0
 13  8  1  0  0  0  0
 14 13  1  0  0  0  0
 14 38  1  0  0  0  0
 15 14  1  0  0  0  0
 15 39  1  0  0  0  0
 15 40  1  0  0  0  0
 16 15  1  0  0  0  0
 16 41  1  0  0  0  0
 16 42  1  0  0  0  0
 17 16  1  0  0  0  0
 18 17  1  0  0  0  0
 18 43  1  0  0  0  0
 18 44  1  0  0  0  0
 19 18  1  0  0  0  0
 19 14  1  0  0  0  0
 19 45  1  0  0  0  0
 19 46  1  0  0  0  0
 20  1  1  0  0  0  0
 21 20  2  0  0  0  0
 22 20  1  0  0  0  0
 23 22  1  0  0  0  0
 23 47  1  0  0  0  0
 24 23  1  0  0  0  0
 25 24  2  0  0  0  0
 25 48  1  0  0  0  0
 26 24  1  0  0  0  0
 27 25  1  0  0  0  0
 27 49  1  0  0  0  0
 28 27  2  0  0  0  0
 28 50  1  0  0  0  0
 29 28  1  0  0  0  0
 29 26  2  0  0  0  0
 29 51  1  0  0  0  0
 30 26  1  0  0  0  0
 30 22  2  0  0  0  0
M  END
$$$$
