@<TRIPOS>MOLECULE
2W1
 51 55 0 0 0
SMALL
GASTEIGER

@<TRIPOS>ATOM
      1 C          93.2350   -4.5760   15.4640 C.ar    1  UNL1        0.0256
      2 C          92.6770   -3.8390   14.3810 C.ar    1  UNL1       -0.0473
      3 C          92.9550   -2.4790   14.2610 C.ar    1  UNL1       -0.0186
      4 C          93.7740   -1.8520   15.1990 C.ar    1  UNL1        0.1304
      5 C          94.3500   -2.5870   16.2850 C.ar    1  UNL1       -0.0186
      6 C          94.0710   -3.9220   16.3970 C.ar    1  UNL1       -0.0473
      7 O          94.0500   -0.4700   15.0410 O.3     1  UNL1       -0.4378
      8 C          95.3110   -0.1520   14.4280 C.ar    1  UNL1        0.2239
      9 N          96.3330    0.2860   15.1920 N.ar    1  UNL1       -0.2207
     10 C          97.5280    0.6220   14.6530 C.ar    1  UNL1        0.0314
     11 C          97.7210    0.5170   13.2470 C.ar    1  UNL1       -0.0431
     12 C          96.6820    0.0790   12.4470 C.ar    1  UNL1       -0.0518
     13 C          95.4450   -0.2620   13.0060 C.ar    1  UNL1        0.0178
     14 C          94.3200   -0.7560   12.0650 C.3     1  UNL1       -0.0067
     15 C          94.8730   -1.7450   11.1230 C.3     1  UNL1       -0.0224
     16 C          93.8000   -2.2840   10.1890 C.3     1  UNL1        0.0482
     17 O          92.9740   -1.2490    9.5690 O.3     1  UNL1       -0.3797
     18 C          92.5020   -0.2450   10.5200 C.3     1  UNL1        0.0482
     19 C          93.6490    0.3100   11.3380 C.3     1  UNL1       -0.0224
     20 C          92.9850   -6.1050   15.6590 C.2     1  UNL1        0.2280
     21 O          92.2060   -6.4550   16.5250 O.2     1  UNL1       -0.2834
     22 C          93.6820   -7.1780   14.8690 C.ar    1  UNL1        0.1800
     23 N          94.9920   -7.4530   14.8640 N.ar    1  UNL1       -0.3353
     24 C          95.1940   -8.5340   14.0100 C.ar    1  UNL1        0.0665
     25 C          96.3760   -9.2550   13.6150 C.ar    1  UNL1       -0.0362
     26 C          93.9680   -8.8920   13.5070 C.ar    1  UNL1        0.0896
     27 C          96.2530  -10.3340   12.6950 C.ar    1  UNL1       -0.0597
     28 C          95.0040  -10.6870   12.1920 C.ar    1  UNL1       -0.0596
     29 C          93.8490   -9.9740   12.5840 C.ar    1  UNL1       -0.0342
     30 N          93.0330   -8.0390   14.0480 N.ar    1  UNL1       -0.2246
     31 H          92.0312   -4.3396   13.6445 H       1  UNL1        0.0626
     32 H          92.5290   -1.9010   13.4276 H       1  UNL1        0.0654
     33 H          95.0041   -2.0879   17.0151 H       1  UNL1        0.0654
     34 H          94.5054   -4.4965   17.2284 H       1  UNL1        0.0626
     35 H          98.3460    0.9745   15.2984 H       1  UNL1        0.0831
     36 H          98.6903    0.7825   12.7998 H       1  UNL1        0.0633
     37 H          96.8290   -0.0023   11.3599 H       1  UNL1        0.0622
     38 H          93.5499   -1.2138   12.7033 H       1  UNL1        0.0352
     39 H          95.6613   -1.2662   10.5236 H       1  UNL1        0.0293
     40 H          95.2799   -2.5858   11.7039 H       1  UNL1        0.0293
     41 H          94.2934   -2.8570    9.3901 H       1  UNL1        0.0560
     42 H          93.1273   -2.9022   10.8016 H       1  UNL1        0.0560
     43 H          92.0237    0.5770    9.9673 H       1  UNL1        0.0560
     44 H          91.7826   -0.7204   11.2030 H       1  UNL1        0.0560
     45 H          94.3696    0.7987   10.6658 H       1  UNL1        0.0293
     46 H          93.2507    1.0371   12.0610 H       1  UNL1        0.0293
     47 H          95.7196   -6.9547   15.3961 H       1  UNL1        0.1675
     48 H          97.3604   -8.9758   14.0186 H       1  UNL1        0.0639
     49 H          97.1480  -10.8908   12.3804 H       1  UNL1        0.0618
     50 H          94.9158  -11.5255   11.4856 H       1  UNL1        0.0618
     51 H          92.8640  -10.2511   12.1803 H       1  UNL1        0.0639
@<TRIPOS>BOND
     1     2     1   ar
     2     3     2   ar
     3     4     3   ar
     4     5     4   ar
     5     6     5   ar
     6     6     1   ar
     7     7     4    1
     8     8     7    1
     9     9     8   ar
    10    10     9   ar
    11    11    10   ar
    12    12    11   ar
    13    13    12   ar
    14    13     8   ar
    15    14    13    1
    16    15    14    1
    17    16    15    1
    18    17    16    1
    19    18    17    1
    20    19    18    1
    21    19    14    1
    22    20     1    1
    23    21    20    2
    24    22    20    1
    25    23    22   ar
    26    24    23   ar
    27    25    24   ar
    28    26    24   ar
    29    27    25   ar
    30    28    27   ar
    31    29    28   ar
    32    29    26   ar
    33    30    26   ar
    34    30    22   ar
    35     2    31    1
    36     3    32    1
    37     5    33    1
    38     6    34    1
    39    10    35    1
    40    11    36    1
    41    12    37    1
    42    14    38    1
    43    15    39    1
    44    15    40    1
    45    16    41    1
    46    16    42    1
    47    18    43    1
    48    18    44    1
    49    19    45    1
    50    19    46    1
    51    23    47    1
    52    25    48    1
    53    27    49    1
    54    28    50    1
    55    29    51    1
