@<TRIPOS>MOLECULE
CMB
 54 57 0 0 0
SMALL
GASTEIGER

@<TRIPOS>ATOM
      1 C           8.0540   12.2040   20.7940 C.ar    1  UNL1       -0.0595
      2 C           8.4380   10.8660   20.9630 C.ar    1  UNL1       -0.0376
      3 C           7.4640    9.8260   20.9770 C.ar    1  UNL1        0.0502
      4 C           6.1030   10.0670   20.8000 C.ar    1  UNL1        0.0035
      5 C           5.7020   11.4580   20.6280 C.ar    1  UNL1       -0.0413
      6 C           6.6770   12.4920   20.6420 C.ar    1  UNL1       -0.0582
      7 N           7.6540    8.4770   21.2460 N.ar    1  UNL1       -0.3318
      8 C           6.4010    7.8850   21.1830 C.ar    1  UNL1        0.1057
      9 C           5.3780    8.8580   20.8500 C.ar    1  UNL1       -0.0237
     10 C           4.2880   11.8090   20.4020 C.3     1  UNL1       -0.0391
     11 C           6.1450    6.5130   21.4420 C.2     1  UNL1        0.2608
     12 N           6.4800    5.6040   20.4950 N.am    1  UNL1       -0.3060
     13 O           5.6100    6.1570   22.4950 O.2     1  UNL1       -0.2686
     14 C           6.2210    4.1820   20.7280 C.3     1  UNL1        0.0373
     15 C           6.4230    3.2340   19.5480 C.ar    1  UNL1       -0.0276
     16 C           7.5270    2.3680   19.5400 C.ar    1  UNL1       -0.0386
     17 C           7.8300    1.5630   18.4290 C.ar    1  UNL1        0.0427
     18 CL          9.2890    0.5840   18.4230 Cl      1  UNL1       -0.0835
     19 C           6.9880    1.6160   17.3060 C.ar    1  UNL1       -0.0250
     20 C           5.8690    2.4710   17.2870 C.ar    1  UNL1        0.0427
     21 CL          4.8550    2.6140   15.8520 Cl      1  UNL1       -0.0835
     22 C           5.5910    3.2680   18.4190 C.ar    1  UNL1       -0.0386
     23 C           8.9270    7.8880   21.6810 C.3     1  UNL1        0.0490
     24 C           9.2870    8.1870   23.1140 C.ar    1  UNL1       -0.0269
     25 C          10.4200    8.9200   23.5250 C.ar    1  UNL1       -0.0568
     26 C          10.7620    8.9800   24.8900 C.ar    1  UNL1       -0.0606
     27 C           9.9350    8.3230   25.8210 C.ar    1  UNL1       -0.0469
     28 C           8.7630    7.6550   25.3940 C.ar    1  UNL1        0.0650
     29 C           8.4490    7.5890   24.0440 C.ar    1  UNL1       -0.0420
     30 C           7.8080    7.0320   26.2940 C.2     1  UNL1        0.3081
     31 N           6.5280    6.8380   25.9710 N.2     1  UNL1       -0.0994
     32 N           8.2780    6.7110   27.4940 N.pl3   1  UNL1       -0.2466
     33 H           8.8037   13.0088   20.7800 H       1  UNL1        0.0618
     34 H           9.5023   10.6166   21.0861 H       1  UNL1        0.0638
     35 H           6.3544   13.5379   20.5324 H       1  UNL1        0.0620
     36 H           4.3038    8.6939   20.6790 H       1  UNL1        0.0646
     37 H           3.7821   11.9346   21.3706 H       1  UNL1        0.0278
     38 H           4.2299   12.7488   19.8334 H       1  UNL1        0.0278
     39 H           3.7971   11.0055   19.8334 H       1  UNL1        0.0278
     40 H           6.9155    5.9123   19.6140 H       1  UNL1        0.1494
     41 H           6.8901    3.8517   21.5363 H       1  UNL1        0.0512
     42 H           5.1471    4.1232   20.9587 H       1  UNL1        0.0512
     43 H           8.1735    2.3179   20.4286 H       1  UNL1        0.0635
     44 H           7.2047    0.9834   16.4326 H       1  UNL1        0.0647
     45 H           4.7090    3.9253   18.4155 H       1  UNL1        0.0635
     46 H           8.8608    6.7964   21.5622 H       1  UNL1        0.0541
     47 H           9.7135    8.3370   21.0566 H       1  UNL1        0.0541
     48 H          11.0361    9.4445   22.7798 H       1  UNL1        0.0621
     49 H          11.6560    9.5284   25.2216 H       1  UNL1        0.0618
     50 H          10.2019    8.3291   26.8881 H       1  UNL1        0.0626
     51 H           7.5402    7.0652   23.7128 H       1  UNL1        0.0629
     52 H           5.8890    6.3914   26.6441 H       1  UNL1        0.3633
     53 H           7.6597    6.2655   28.1870 H       1  UNL1        0.2884
     54 H           9.2608    6.9075   27.7317 H       1  UNL1        0.2884
@<TRIPOS>BOND
     1     2     1   ar
     2     3     2   ar
     3     4     3   ar
     4     5     4   ar
     5     6     5   ar
     6     6     1   ar
     7     7     3   ar
     8     8     7   ar
     9     9     8   ar
    10     9     4   ar
    11    10     5    1
    12    11     8    1
    13    12    11   am
    14    13    11    2
    15    14    12    1
    16    15    14    1
    17    16    15   ar
    18    17    16   ar
    19    18    17    1
    20    19    17   ar
    21    20    19   ar
    22    21    20    1
    23    22    20   ar
    24    22    15   ar
    25    23     7    1
    26    24    23    1
    27    25    24   ar
    28    26    25   ar
    29    27    26   ar
    30    28    27   ar
    31    29    28   ar
    32    29    24   ar
    33    30    28    1
    34    31    30    2
    35    32    30    1
    36     1    33    1
    37     2    34    1
    38     6    35    1
    39     9    36    1
    40    10    37    1
    41    10    38    1
    42    10    39    1
    43    12    40    1
    44    14    41    1
    45    14    42    1
    46    16    43    1
    47    19    44    1
    48    22    45    1
    49    23    46    1
    50    23    47    1
    51    25    48    1
    52    26    49    1
    53    27    50    1
    54    29    51    1
    55    31    52    1
    56    32    53    1
    57    32    54    1
