@<TRIPOS>MOLECULE
537
 25 28 0 0 0
SMALL
GASTEIGER

@<TRIPOS>ATOM
      1 C          19.1980    7.2600   32.3650 C.ar    1  UNL1       -0.0611
      2 C          20.3830    7.2760   31.5740 C.ar    1  UNL1       -0.0518
      3 C          21.1850    8.4300   31.5110 C.ar    1  UNL1        0.0135
      4 C          20.8050    9.6190   32.2660 C.ar    1  UNL1        0.0315
      5 C          19.6130    9.5830   33.0540 C.ar    1  UNL1       -0.0503
      6 C          18.8080    8.4090   33.1040 C.ar    1  UNL1       -0.0610
      7 C          23.1770    9.6620   30.6860 C.ar    1  UNL1        0.0382
      8 C          24.3080    9.6030   29.9070 C.ar    1  UNL1        0.0670
      9 C          25.1890   10.6760   29.7630 C.ar    1  UNL1       -0.0362
     10 C          24.9080   11.8990   30.4630 C.ar    1  UNL1       -0.0591
     11 C          23.7490   12.0180   31.2910 C.ar    1  UNL1       -0.0502
     12 C          22.8650   10.8950   31.4140 C.ar    1  UNL1        0.0335
     13 C          21.6300   10.8800   32.2470 C.2     1  UNL1        0.1945
     14 C          22.4460    8.4540   30.6800 C.ar    1  UNL1        0.1016
     15 O          21.2960   11.8800   32.8930 O.2     1  UNL1       -0.2866
     16 N          23.1180    7.5750   29.8590 N.ar    1  UNL1       -0.1727
     17 N          24.2380    8.3180   29.4160 N.ar    1  UNL1       -0.2764
     18 H          18.5802    6.3507   32.4038 H       1  UNL1        0.0618
     19 H          20.6731    6.3786   31.0079 H       1  UNL1        0.0624
     20 H          19.3139   10.4722   33.6284 H       1  UNL1        0.0625
     21 H          17.8906    8.3921   33.7107 H       1  UNL1        0.0618
     22 H          26.0813   10.5871   29.1259 H       1  UNL1        0.0639
     23 H          25.5928   12.7537   30.3605 H       1  UNL1        0.0618
     24 H          23.5382   12.9560   31.8255 H       1  UNL1        0.0625
     25 H          24.9453    7.9284   28.7766 H       1  UNL1        0.1889
@<TRIPOS>BOND
     1     2     1   ar
     2     3     2   ar
     3     4     3   ar
     4     5     4   ar
     5     6     1   ar
     6     6     5   ar
     7     8     7   ar
     8     9     8   ar
     9    10     9   ar
    10    11    10   ar
    11    12     7   ar
    12    12    11   ar
    13    13     4    1
    14    13    12    1
    15    14     3    1
    16    14     7   ar
    17    15    13    2
    18    16    14   ar
    19    17    16   ar
    20    17     8   ar
    21     1    18    1
    22     2    19    1
    23     5    20    1
    24     6    21    1
    25     9    22    1
    26    10    23    1
    27    11    24    1
    28    17    25    1
