537
 OpenBabel09142215213D

 25 28  0  0  0  0  0  0  0  0999 V2000
   19.1980    7.2600   32.3650 C   0  0  0  0  0  0  0  0  0  0  0  0
   20.3830    7.2760   31.5740 C   0  0  0  0  0  0  0  0  0  0  0  0
   21.1850    8.4300   31.5110 C   0  0  0  0  0  0  0  0  0  0  0  0
   20.8050    9.6190   32.2660 C   0  0  0  0  0  0  0  0  0  0  0  0
   19.6130    9.5830   33.0540 C   0  0  0  0  0  0  0  0  0  0  0  0
   18.8080    8.4090   33.1040 C   0  0  0  0  0  0  0  0  0  0  0  0
   23.1770    9.6620   30.6860 C   0  0  0  0  0  0  0  0  0  0  0  0
   24.3080    9.6030   29.9070 C   0  0  0  0  0  0  0  0  0  0  0  0
   25.1890   10.6760   29.7630 C   0  0  0  0  0  0  0  0  0  0  0  0
   24.9080   11.8990   30.4630 C   0  0  0  0  0  0  0  0  0  0  0  0
   23.7490   12.0180   31.2910 C   0  0  0  0  0  0  0  0  0  0  0  0
   22.8650   10.8950   31.4140 C   0  0  0  0  0  0  0  0  0  0  0  0
   21.6300   10.8800   32.2470 C   0  0  0  0  0  0  0  0  0  0  0  0
   22.4460    8.4540   30.6800 C   0  0  0  0  0  0  0  0  0  0  0  0
   21.2960   11.8800   32.8930 O   0  0  0  0  0  0  0  0  0  0  0  0
   23.1180    7.5750   29.8590 N   0  0  0  0  0  0  0  0  0  0  0  0
   24.2380    8.3180   29.4160 N   0  0  0  0  0  0  0  0  0  0  0  0
   18.5802    6.3507   32.4038 H   0  0  0  0  0  0  0  0  0  0  0  0
   20.6731    6.3786   31.0079 H   0  0  0  0  0  0  0  0  0  0  0  0
   19.3139   10.4722   33.6284 H   0  0  0  0  0  0  0  0  0  0  0  0
   17.8906    8.3921   33.7107 H   0  0  0  0  0  0  0  0  0  0  0  0
   26.0813   10.5871   29.1259 H   0  0  0  0  0  0  0  0  0  0  0  0
   25.5928   12.7537   30.3605 H   0  0  0  0  0  0  0  0  0  0  0  0
   23.5382   12.9560   31.8255 H   0  0  0  0  0  0  0  0  0  0  0  0
   24.9453    7.9284   28.7766 H   0  0  0  0  0  0  0  0  0  0  0  0
  1 18  1  0  0  0  0
  2  1  2  0  0  0  0
  2 19  1  0  0  0  0
  3  2  1  0  0  0  0
  4  3  2  0  0  0  0
  5  4  1  0  0  0  0
  5 20  1  0  0  0  0
  6  1  1  0  0  0  0
  6  5  2  0  0  0  0
  6 21  1  0  0  0  0
  8  7  2  0  0  0  0
  9  8  1  0  0  0  0
  9 22  1  0  0  0  0
 10  9  2  0  0  0  0
 10 23  1  0  0  0  0
 11 10  1  0  0  0  0
 11 24  1  0  0  0  0
 12  7  1  0  0  0  0
 12 11  2  0  0  0  0
 13  4  1  0  0  0  0
 13 12  1  0  0  0  0
 14  3  1  0  0  0  0
 14  7  1  0  0  0  0
 15 13  2  0  0  0  0
 16 14  2  0  0  0  0
 17 16  1  0  0  0  0
 17  8  1  0  0  0  0
 17 25  1  0  0  0  0
M  END
$$$$
