@<TRIPOS>MOLECULE
676
 52 55 0 0 0
SMALL
GASTEIGER

@<TRIPOS>ATOM
      1 C         169.5940 -122.3600    2.9300 C.ar    1  UNL1        0.0134
      2 C         170.4070 -124.4490    2.3960 C.ar    1  UNL1       -0.0240
      3 C         169.9520 -123.2260    1.8850 C.ar    1  UNL1        0.0005
      4 C         170.3680 -124.3740    3.7720 C.ar    1  UNL1        0.1053
      5 N         169.7630 -123.1190    4.1320 N.ar    1  UNL1       -0.3375
      6 C         169.9540 -122.5200    5.4730 C.3     1  UNL1        0.0584
      7 C         169.7020 -123.6380    6.4950 C.3     1  UNL1        0.0332
      8 N         170.4400 -124.8440    6.1340 N.am    1  UNL1       -0.3082
      9 C         170.6790 -125.2940    4.8940 C.2     1  UNL1        0.2606
     10 O         171.1390 -126.4080    4.6610 O.2     1  UNL1       -0.2686
     11 C         168.8480 -121.4860    5.7880 C.3     1  UNL1        0.0462
     12 C         169.2330 -120.0510    5.4570 C.2     1  UNL1        0.2155
     13 N         168.9570 -119.6060    4.2170 N.am    1  UNL1       -0.3072
     14 O         169.8130 -119.3610    6.2980 O.2     1  UNL1       -0.2757
     15 C         169.2330 -118.2360    3.7490 C.3     1  UNL1        0.0606
     16 C         168.0280 -117.3850    4.2160 C.3     1  UNL1        0.0157
     17 N         168.4620 -116.2980    5.0900 N.3     1  UNL1       -0.3280
     18 C         169.3540 -118.0520    2.2700 C.ar    1  UNL1       -0.0260
     19 C         168.1960 -118.1940    1.4760 C.ar    1  UNL1       -0.0568
     20 C         168.2530 -118.0480    0.0810 C.ar    1  UNL1       -0.0614
     21 C         169.4790 -117.7590   -0.5320 C.ar    1  UNL1       -0.0617
     22 C         170.6340 -117.6130    0.2650 C.ar    1  UNL1       -0.0614
     23 C         170.5710 -117.7670    1.6500 C.ar    1  UNL1       -0.0568
     24 C         169.7940 -122.9190    0.4270 C.ar    1  UNL1       -0.0108
     25 C         170.2150 -123.8670   -0.5060 C.ar    1  UNL1       -0.0356
     26 C         170.0270 -123.6740   -1.8730 C.ar    1  UNL1        0.0312
     27 N         169.4040 -122.5560   -2.3050 N.ar    1  UNL1       -0.2276
     28 C         168.9600 -121.6200   -1.4140 C.ar    1  UNL1        0.2138
     29 C         169.1210 -121.7870   -0.0330 C.ar    1  UNL1        0.0005
     30 F         168.3480 -120.5190   -1.8880 F       1  UNL1       -0.1839
     31 H         169.2548 -121.3172    2.8435 H       1  UNL1        0.0815
     32 H         170.7369 -125.3154    1.8040 H       1  UNL1        0.0646
     33 H         170.9528 -122.0605    5.5088 H       1  UNL1        0.0548
     34 H         170.0289 -123.2988    7.4890 H       1  UNL1        0.0482
     35 H         168.6271 -123.8714    6.5054 H       1  UNL1        0.0482
     36 H         170.8154 -125.4066    6.9108 H       1  UNL1        0.1491
     37 H         167.9529 -121.7478    5.2047 H       1  UNL1        0.0379
     38 H         168.6720 -121.5272    6.8730 H       1  UNL1        0.0379
     39 H         168.5255 -120.2647    3.5531 H       1  UNL1        0.1493
     40 H         170.2135 -117.9518    4.1586 H       1  UNL1        0.0561
     41 H         167.5253 -116.9593    3.3350 H       1  UNL1        0.0443
     42 H         167.3386 -118.0324    4.7778 H       1  UNL1        0.0443
     43 H         168.3486 -116.5821    6.0735 H       1  UNL1        0.1183
     44 H         169.4528 -116.0845    4.9064 H       1  UNL1        0.1183
     45 H         167.2339 -118.4226    1.9577 H       1  UNL1        0.0621
     46 H         167.3424 -118.1596   -0.5258 H       1  UNL1        0.0618
     47 H         169.5406 -117.6469   -1.6245 H       1  UNL1        0.0618
     48 H         171.5963 -117.3747   -0.2117 H       1  UNL1        0.0618
     49 H         171.4837 -117.6634    2.2552 H       1  UNL1        0.0621
     50 H         170.7059 -124.7866   -0.1548 H       1  UNL1        0.0639
     51 H         170.3826 -124.4251   -2.5937 H       1  UNL1        0.0831
     52 H         168.7256 -121.0422    0.6733 H       1  UNL1        0.0668
@<TRIPOS>BOND
     1     3     2   ar
     2     3     1   ar
     3     4     2   ar
     4     5     4   ar
     5     5     1   ar
     6     6     5    1
     7     7     6    1
     8     8     7    1
     9     9     4    1
    10     9     8   am
    11    10     9    2
    12    11     6    1
    13    12    11    1
    14    13    12   am
    15    14    12    2
    16    15    13    1
    17    16    15    1
    18    17    16    1
    19    18    15    1
    20    19    18   ar
    21    20    19   ar
    22    21    20   ar
    23    22    21   ar
    24    23    22   ar
    25    23    18   ar
    26    24     3    1
    27    25    24   ar
    28    26    25   ar
    29    27    26   ar
    30    28    27   ar
    31    29    28   ar
    32    29    24   ar
    33    30    28    1
    34     1    31    1
    35     2    32    1
    36     6    33    1
    37     7    34    1
    38     7    35    1
    39     8    36    1
    40    11    37    1
    41    11    38    1
    42    13    39    1
    43    15    40    1
    44    16    41    1
    45    16    42    1
    46    17    43    1
    47    17    44    1
    48    19    45    1
    49    20    46    1
    50    21    47    1
    51    22    48    1
    52    23    49    1
    53    25    50    1
    54    26    51    1
    55    29    52    1
