@<TRIPOS>MOLECULE
512
 19 19 0 0 0
SMALL
GASTEIGER

@<TRIPOS>ATOM
      1 C          44.5850   19.6030    0.7050 C.ar    1  UNL1       -0.0059
      2 C          45.3330   18.4330    0.4450 C.ar    1  UNL1        0.0673
      3 S          43.0200   19.1530    1.1900 S.2     1  UNL1       -0.0855
      4 C          43.2740   17.4720    1.0690 C.ar    1  UNL1        0.1387
      5 C          44.6090   17.2240    0.6460 C.ar    1  UNL1        0.1563
      6 BR         47.1280   18.4950   -0.1120 Br      1  UNL1       -0.0459
      7 O          45.2370   15.9400    0.4240 O.3     1  UNL1       -0.4783
      8 C          45.6600   15.2790    1.6360 C.3     1  UNL1        0.1858
      9 C          47.0920   14.7550    1.5120 C.2     1  UNL1        0.3427
     10 O          47.2410   13.7390    0.6480 O.2     1  UNL1       -0.2472
     11 O          48.0070   15.1990    2.1320 O.3     1  UNL1       -0.4783
     12 C          42.2630   16.5500    1.3620 C.2     1  UNL1        0.3471
     13 O          42.3710   15.9620    2.5690 O.2     1  UNL1       -0.2444
     14 O          41.3580   16.2930    0.6040 O.3     1  UNL1       -0.4767
     15 H          44.9546   20.6346    0.6093 H       1  UNL1        0.0706
     16 H          45.6111   15.9943    2.4702 H       1  UNL1        0.0815
     17 H          44.9917   14.4242    1.8170 H       1  UNL1        0.0815
     18 H          48.9147   14.8221    2.0132 H       1  UNL1        0.2952
     19 H          40.6684   15.6314    0.8626 H       1  UNL1        0.2954
@<TRIPOS>BOND
     1     2     1   ar
     2     3     1   ar
     3     4     3   ar
     4     5     4   ar
     5     5     2   ar
     6     6     2    1
     7     7     5    1
     8     8     7    1
     9     9     8    1
    10    10     9    2
    11    11     9    1
    12    12     4    1
    13    13    12    2
    14    14    12    1
    15     1    15    1
    16     8    16    1
    17     8    17    1
    18    11    18    1
    19    14    19    1
