@<TRIPOS>MOLECULE
L10
 47 49 0 0 0
SMALL
GASTEIGER

@<TRIPOS>ATOM
      1 C           9.1180   19.1040   38.1090 C.ar    1  UNL1        0.0418
      2 C           9.1150   17.9390   37.3640 C.ar    1  UNL1        0.0013
      3 C           8.1670   17.1260   37.8790 C.ar    1  UNL1        0.1486
      4 N           7.5550   17.7830   38.9120 N.ar    1  UNL1       -0.2390
      5 N           8.1860   19.0160   39.0190 N.ar    1  UNL1       -0.2950
      6 N           7.8200   15.8580   37.4180 N.am    1  UNL1       -0.1439
      7 C           7.4740   15.4920   36.1540 C.2     1  UNL1        0.3293
      8 O           7.5840   16.2550   35.2130 O.2     1  UNL1       -0.2503
      9 N           6.9400   14.2480   36.0350 N.am    1  UNL1       -0.2678
     10 C           6.7100   13.4690   34.8910 C.ar    1  UNL1        0.0349
     11 C           7.7470   13.4730   33.9430 C.ar    1  UNL1       -0.0391
     12 C           7.6310   12.7440   32.7920 C.ar    1  UNL1       -0.0416
     13 C           6.4770   12.0130   32.5810 C.ar    1  UNL1        0.0411
     14 CL          6.3230   11.1270   31.1210 Cl      1  UNL1       -0.0835
     15 C           5.4400   11.9910   33.4960 C.ar    1  UNL1       -0.0416
     16 C           5.5560   12.7230   34.6560 C.ar    1  UNL1       -0.0391
     17 C           6.4900   17.3210   39.7370 C.ar    1  UNL1        0.0654
     18 C           5.2990   18.0280   39.8250 C.ar    1  UNL1       -0.0363
     19 C           4.2600   17.5940   40.6200 C.ar    1  UNL1       -0.0598
     20 C           4.3870   16.4250   41.3420 C.ar    1  UNL1       -0.0616
     21 C           5.5550   15.7000   41.2740 C.ar    1  UNL1       -0.0598
     22 C           6.5940   16.1460   40.4840 C.ar    1  UNL1       -0.0363
     23 C          10.0300   20.2780   37.8580 C.3     1  UNL1        0.0039
     24 C          10.0470   20.7060   36.3880 C.3     1  UNL1       -0.0546
     25 C           9.4780   21.4290   38.7030 C.3     1  UNL1       -0.0546
     26 C          11.4480   19.9070   38.2950 C.3     1  UNL1       -0.0546
     27 H           9.7669   17.7148   36.5068 H       1  UNL1        0.0670
     28 H           7.9549   19.7460   39.7079 H       1  UNL1        0.1870
     29 H           6.6604   13.8083   36.9235 H       1  UNL1        0.1564
     30 H           8.6557   14.0649   34.1275 H       1  UNL1        0.0636
     31 H           8.4410   12.7394   32.0478 H       1  UNL1        0.0633
     32 H           4.5353   11.3969   33.2995 H       1  UNL1        0.0633
     33 H           4.7411   12.7193   35.3949 H       1  UNL1        0.0636
     34 H           5.1814   18.9564   39.2468 H       1  UNL1        0.0639
     35 H           3.3304   18.1791   40.6788 H       1  UNL1        0.0618
     36 H           3.5560   16.0730   41.9710 H       1  UNL1        0.0618
     37 H           5.6596   14.7675   41.8481 H       1  UNL1        0.0618
     38 H           7.5257   15.5627   40.4415 H       1  UNL1        0.0639
     39 H          10.0906   21.8034   36.3261 H       1  UNL1        0.0239
     40 H          10.9287   20.2754   35.8909 H       1  UNL1        0.0239
     41 H           9.1339   20.3467   35.8909 H       1  UNL1        0.0239
     42 H           9.5933   21.1885   39.7702 H       1  UNL1        0.0239
     43 H          10.0318   22.3511   38.4730 H       1  UNL1        0.0239
     44 H           8.4122   21.5744   38.4730 H       1  UNL1        0.0239
     45 H          11.5013   19.8931   39.3936 H       1  UNL1        0.0239
     46 H          11.7039   18.9117   37.9028 H       1  UNL1        0.0239
     47 H          12.1586   20.6495   37.9028 H       1  UNL1        0.0239
@<TRIPOS>BOND
     1     2     1   ar
     2     3     2   ar
     3     4     3   ar
     4     5     1   ar
     5     5     4   ar
     6     6     3    2
     7     7     6    1
     8     8     7    2
     9     9     7   am
    10    10     9    1
    11    11    10   ar
    12    12    11   ar
    13    13    12   ar
    14    14    13    1
    15    15    13   ar
    16    16    15   ar
    17    16    10   ar
    18    17     4    1
    19    18    17   ar
    20    19    18   ar
    21    20    19   ar
    22    21    20   ar
    23    22    21   ar
    24    22    17   ar
    25    23     1    1
    26    24    23    1
    27    25    23    1
    28    26    23    1
    29     2    27    1
    30     5    28    1
    31     9    29    1
    32    11    30    1
    33    12    31    1
    34    15    32    1
    35    16    33    1
    36    18    34    1
    37    19    35    1
    38    20    36    1
    39    21    37    1
    40    22    38    1
    41    24    39    1
    42    24    40    1
    43    24    41    1
    44    25    42    1
    45    25    43    1
    46    25    44    1
    47    26    45    1
    48    26    46    1
    49    26    47    1
