DT2
  Mrv15b2303062314042D          

 27 30  0  0  0  0            999 V2000
   -3.4949   -2.6023    0.0000 O   0  0  0  0  0  0  0  0  0  0  0  0
   -2.7804   -2.1898    0.0000 S   0  0  0  0  0  0  0  0  0  0  0  0
   -2.3679   -2.9043    0.0000 O   0  0  0  0  0  0  0  0  0  0  0  0
   -3.1929   -1.4753    0.0000 N   0  0  0  0  0  0  0  0  0  0  0  0
   -2.0659   -1.7773    0.0000 C   0  0  0  0  0  0  0  0  0  0  0  0
   -2.0659   -0.9523    0.0000 C   0  0  0  0  0  0  0  0  0  0  0  0
   -1.3515   -0.5398    0.0000 C   0  0  0  0  0  0  0  0  0  0  0  0
   -0.6370   -0.9523    0.0000 C   0  0  0  0  0  0  0  0  0  0  0  0
   -0.6370   -1.7773    0.0000 C   0  0  0  0  0  0  0  0  0  0  0  0
   -1.3515   -2.1898    0.0000 C   0  0  0  0  0  0  0  0  0  0  0  0
    0.0775   -0.5398    0.0000 N   0  0  0  0  0  0  0  0  0  0  0  0
    0.0775    0.2852    0.0000 C   0  0  0  0  0  0  0  0  0  0  0  0
   -0.6370    0.6977    0.0000 N   0  0  0  0  0  0  0  0  0  0  0  0
   -1.4216    0.4428    0.0000 N   0  0  0  0  0  0  0  0  0  0  0  0
   -1.9065    1.1102    0.0000 C   0  0  0  0  0  0  0  0  0  0  0  0
   -0.6370    1.5227    0.0000 C   0  0  0  0  0  0  0  0  0  0  0  0
   -1.4216    1.7777    0.0000 N   0  0  0  0  0  0  0  0  0  0  0  0
    0.0775    1.9352    0.0000 N   0  0  0  0  0  0  0  0  0  0  0  0
    0.7920    1.5227    0.0000 C   0  0  0  0  0  0  0  0  0  0  0  0
    0.7920    0.6977    0.0000 C   0  0  0  0  0  0  0  0  0  0  0  0
    1.5064    1.9352    0.0000 N   0  0  0  0  0  0  0  0  0  0  0  0
    2.2209    1.5227    0.0000 C   0  0  0  0  0  0  0  0  0  0  0  0
    2.9354    1.9352    0.0000 C   0  0  0  0  0  0  0  0  0  0  0  0
    3.6498    1.5227    0.0000 C   0  0  0  0  0  0  0  0  0  0  0  0
    3.6498    0.6977    0.0000 C   0  0  0  0  0  0  0  0  0  0  0  0
    2.9354    0.2852    0.0000 C   0  0  0  0  0  0  0  0  0  0  0  0
    2.2209    0.6977    0.0000 C   0  0  0  0  0  0  0  0  0  0  0  0
  1  2  2  0  0  0  0
  2  3  2  0  0  0  0
  2  4  1  0  0  0  0
  2  5  1  0  0  0  0
  5  6  4  0  0  0  0
  5 10  4  0  0  0  0
  6  7  4  0  0  0  0
  7  8  4  0  0  0  0
  8  9  4  0  0  0  0
  8 11  1  0  0  0  0
  9 10  4  0  0  0  0
 11 12  1  0  0  0  0
 12 13  4  0  0  0  0
 12 20  4  0  0  0  0
 13 14  4  0  0  0  0
 13 16  4  0  0  0  0
 14 15  4  0  0  0  0
 15 17  4  0  0  0  0
 16 17  4  0  0  0  0
 16 18  4  0  0  0  0
 18 19  4  0  0  0  0
 19 20  4  0  0  0  0
 19 21  1  0  0  0  0
 21 22  1  0  0  0  0
 22 23  1  0  0  0  0
 22 27  1  0  0  0  0
 23 24  1  0  0  0  0
 24 25  1  0  0  0  0
 25 26  1  0  0  0  0
 26 27  1  0  0  0  0
M  END
