@<TRIPOS>MOLECULE
DT2
 48 51 0 0 0
SMALL
GASTEIGER

@<TRIPOS>ATOM
      1 O           5.5890   -1.1170   -2.0750 O.2     1  LIG1       -0.1533
      2 S           5.8820   -0.6550   -0.7640 S.O2    1  LIG1        0.0559
      3 O           6.7330   -1.3100    0.1670 O.2     1  LIG1       -0.1533
      4 N           6.5080    0.8670   -0.9520 N.3     1  LIG1       -0.2035
      5 C           4.3260   -0.4890    0.0450 C.ar    1  LIG1        0.1051
      6 C           3.1730   -0.3320   -0.7030 C.ar    1  LIG1       -0.0336
      7 C           1.9510   -0.2020   -0.0720 C.ar    1  LIG1       -0.0387
      8 C           1.8810   -0.2280    1.3150 C.ar    1  LIG1        0.0325
      9 C           3.0410   -0.3870    2.0630 C.ar    1  LIG1       -0.0387
     10 C           4.2590   -0.5220    1.4260 C.ar    1  LIG1       -0.0336
     11 N           0.6460   -0.0970    1.9560 N.pl3   1  LIG1       -0.2992
     12 C          -0.4830    0.2040    1.2240 C.ar    1  LIG1        0.1315
     13 N          -0.5390    1.3440    0.4700 N.ar    1  LIG1       -0.1822
     14 N           0.3710    2.3820    0.2300 N.ar    1  LIG1       -0.1506
     15 C          -0.2120    3.2220   -0.5890 C.ar    1  LIG1        0.1406
     16 C          -1.6580    1.6350   -0.2580 C.ar    1  LIG1        0.2562
     17 N          -1.4290    2.7830   -0.8870 N.ar    1  LIG1       -0.1974
     18 N          -2.7140    0.8140   -0.2340 N.ar    1  LIG1       -0.1957
     19 C          -2.6980   -0.2950    0.4870 C.ar    1  LIG1        0.1261
     20 C          -1.5660   -0.6300    1.2430 C.ar    1  LIG1        0.0184
     21 N          -3.8030   -1.1280    0.4950 N.pl3   1  LIG1       -0.3260
     22 C          -4.9880   -0.7810   -0.2940 C.3     1  LIG1        0.0220
     23 C          -5.7690   -2.0530   -0.6290 C.3     1  LIG1       -0.0345
     24 C          -7.0060   -1.6910   -1.4530 C.3     1  LIG1       -0.0514
     25 C          -7.8960   -0.7440   -0.6470 C.3     1  LIG1       -0.0529
     26 C          -7.1160    0.5290   -0.3120 C.3     1  LIG1       -0.0514
     27 C          -5.8790    0.1660    0.5130 C.3     1  LIG1       -0.0345
     28 H           6.0120    1.6370   -0.6320 H       1  LIG1        0.1442
     29 H           7.3710    0.9870   -1.3770 H       1  LIG1        0.1442
     30 H           3.2280   -0.3110   -1.7810 H       1  LIG1        0.0638
     31 H           1.0520   -0.0780   -0.6570 H       1  LIG1        0.0637
     32 H           2.9900   -0.4080    3.1420 H       1  LIG1        0.0637
     33 H           5.1610   -0.6450    2.0070 H       1  LIG1        0.0638
     34 H           0.5830   -0.2170    2.9170 H       1  LIG1        0.1536
     35 H           0.2310    4.1330   -0.9640 H       1  LIG1        0.1066
     36 H          -1.5490   -1.5350    1.8330 H       1  LIG1        0.0686
     37 H          -3.7940   -1.9420    1.0230 H       1  LIG1        0.1477
     38 H          -4.6790   -0.2910   -1.2170 H       1  LIG1        0.0498
     39 H          -5.1340   -2.7280   -1.2040 H       1  LIG1        0.0283
     40 H          -6.0780   -2.5430    0.2940 H       1  LIG1        0.0283
     41 H          -6.6960   -1.2010   -2.3760 H       1  LIG1        0.0266
     42 H          -7.5620   -2.5970   -1.6920 H       1  LIG1        0.0266
     43 H          -8.7770   -0.4850   -1.2340 H       1  LIG1        0.0265
     44 H          -8.2050   -1.2340    0.2770 H       1  LIG1        0.0265
     45 H          -6.8060    1.0190   -1.2350 H       1  LIG1        0.0266
     46 H          -7.7500    1.2040    0.2630 H       1  LIG1        0.0266
     47 H          -6.1880   -0.3240    1.4360 H       1  LIG1        0.0283
     48 H          -5.3220    1.0730    0.7510 H       1  LIG1        0.0283
@<TRIPOS>BOND
     1     1     2    2
     2     2     3    2
     3     2     4    1
     4     2     5    1
     5     4    28    1
     6     4    29    1
     7     5     6   ar
     8     5    10   ar
     9     6     7   ar
    10     6    30    1
    11     7     8   ar
    12     7    31    1
    13     8     9   ar
    14     8    11    1
    15     9    10   ar
    16     9    32    1
    17    10    33    1
    18    11    12    1
    19    11    34    1
    20    12    13   ar
    21    12    20   ar
    22    13    14   ar
    23    13    16   ar
    24    14    15   ar
    25    15    17   ar
    26    15    35    1
    27    16    17   ar
    28    16    18   ar
    29    18    19   ar
    30    19    20   ar
    31    19    21    1
    32    20    36    1
    33    21    22    1
    34    21    37    1
    35    22    23    1
    36    22    27    1
    37    22    38    1
    38    23    24    1
    39    23    39    1
    40    23    40    1
    41    24    25    1
    42    24    41    1
    43    24    42    1
    44    25    26    1
    45    25    43    1
    46    25    44    1
    47    26    27    1
    48    26    45    1
    49    26    46    1
    50    27    47    1
    51    27    48    1
