DT2
  -OEChem-12112021243D

 48 51  0     0  0  0  0  0  0999 V2000
    5.5890   -1.1170   -2.0750 O   0  0  0  0  0  0  0  0  0  0  0  0
    5.8820   -0.6550   -0.7640 S   0  0  0  0  0  0  0  0  0  0  0  0
    6.7330   -1.3100    0.1670 O   0  0  0  0  0  0  0  0  0  0  0  0
    6.5080    0.8670   -0.9520 N   0  0  0  0  0  0  0  0  0  0  0  0
    4.3260   -0.4890    0.0450 C   0  0  0  0  0  0  0  0  0  0  0  0
    3.1730   -0.3320   -0.7030 C   0  0  0  0  0  0  0  0  0  0  0  0
    1.9510   -0.2020   -0.0720 C   0  0  0  0  0  0  0  0  0  0  0  0
    1.8810   -0.2280    1.3150 C   0  0  0  0  0  0  0  0  0  0  0  0
    3.0410   -0.3870    2.0630 C   0  0  0  0  0  0  0  0  0  0  0  0
    4.2590   -0.5220    1.4260 C   0  0  0  0  0  0  0  0  0  0  0  0
    0.6460   -0.0970    1.9560 N   0  0  0  0  0  0  0  0  0  0  0  0
   -0.4830    0.2040    1.2240 C   0  0  0  0  0  0  0  0  0  0  0  0
   -0.5390    1.3440    0.4700 N   0  0  0  0  0  0  0  0  0  0  0  0
    0.3710    2.3820    0.2300 N   0  0  0  0  0  0  0  0  0  0  0  0
   -0.2120    3.2220   -0.5890 C   0  0  0  0  0  0  0  0  0  0  0  0
   -1.6580    1.6350   -0.2580 C   0  0  0  0  0  0  0  0  0  0  0  0
   -1.4290    2.7830   -0.8870 N   0  0  0  0  0  0  0  0  0  0  0  0
   -2.7140    0.8140   -0.2340 N   0  0  0  0  0  0  0  0  0  0  0  0
   -2.6980   -0.2950    0.4870 C   0  0  0  0  0  0  0  0  0  0  0  0
   -1.5660   -0.6300    1.2430 C   0  0  0  0  0  0  0  0  0  0  0  0
   -3.8030   -1.1280    0.4950 N   0  0  0  0  0  0  0  0  0  0  0  0
   -4.9880   -0.7810   -0.2940 C   0  0  0  0  0  0  0  0  0  0  0  0
   -5.7690   -2.0530   -0.6290 C   0  0  0  0  0  0  0  0  0  0  0  0
   -7.0060   -1.6910   -1.4530 C   0  0  0  0  0  0  0  0  0  0  0  0
   -7.8960   -0.7440   -0.6470 C   0  0  0  0  0  0  0  0  0  0  0  0
   -7.1160    0.5290   -0.3120 C   0  0  0  0  0  0  0  0  0  0  0  0
   -5.8790    0.1660    0.5130 C   0  0  0  0  0  0  0  0  0  0  0  0
    6.0120    1.6370   -0.6320 H   0  0  0  0  0  0  0  0  0  0  0  0
    7.3710    0.9870   -1.3770 H   0  0  0  0  0  0  0  0  0  0  0  0
    3.2280   -0.3110   -1.7810 H   0  0  0  0  0  0  0  0  0  0  0  0
    1.0520   -0.0780   -0.6570 H   0  0  0  0  0  0  0  0  0  0  0  0
    2.9900   -0.4080    3.1420 H   0  0  0  0  0  0  0  0  0  0  0  0
    5.1610   -0.6450    2.0070 H   0  0  0  0  0  0  0  0  0  0  0  0
    0.5830   -0.2170    2.9170 H   0  0  0  0  0  0  0  0  0  0  0  0
    0.2310    4.1330   -0.9640 H   0  0  0  0  0  0  0  0  0  0  0  0
   -1.5490   -1.5350    1.8330 H   0  0  0  0  0  0  0  0  0  0  0  0
   -3.7940   -1.9420    1.0230 H   0  0  0  0  0  0  0  0  0  0  0  0
   -4.6790   -0.2910   -1.2170 H   0  0  0  0  0  0  0  0  0  0  0  0
   -5.1340   -2.7280   -1.2040 H   0  0  0  0  0  0  0  0  0  0  0  0
   -6.0780   -2.5430    0.2940 H   0  0  0  0  0  0  0  0  0  0  0  0
   -6.6960   -1.2010   -2.3760 H   0  0  0  0  0  0  0  0  0  0  0  0
   -7.5620   -2.5970   -1.6920 H   0  0  0  0  0  0  0  0  0  0  0  0
   -8.7770   -0.4850   -1.2340 H   0  0  0  0  0  0  0  0  0  0  0  0
   -8.2050   -1.2340    0.2770 H   0  0  0  0  0  0  0  0  0  0  0  0
   -6.8060    1.0190   -1.2350 H   0  0  0  0  0  0  0  0  0  0  0  0
   -7.7500    1.2040    0.2630 H   0  0  0  0  0  0  0  0  0  0  0  0
   -6.1880   -0.3240    1.4360 H   0  0  0  0  0  0  0  0  0  0  0  0
   -5.3220    1.0730    0.7510 H   0  0  0  0  0  0  0  0  0  0  0  0
  1  2  2  0  0  0  0
  2  3  2  0  0  0  0
  2  4  1  0  0  0  0
  2  5  1  0  0  0  0
  4 28  1  0  0  0  0
  4 29  1  0  0  0  0
  5  6  2  0  0  0  0
  5 10  1  0  0  0  0
  6  7  1  0  0  0  0
  6 30  1  0  0  0  0
  7  8  2  0  0  0  0
  7 31  1  0  0  0  0
  8  9  1  0  0  0  0
  8 11  1  0  0  0  0
  9 10  2  0  0  0  0
  9 32  1  0  0  0  0
 10 33  1  0  0  0  0
 11 12  1  0  0  0  0
 11 34  1  0  0  0  0
 12 13  1  0  0  0  0
 12 20  2  0  0  0  0
 13 14  1  0  0  0  0
 13 16  1  0  0  0  0
 14 15  2  0  0  0  0
 15 17  1  0  0  0  0
 15 35  1  0  0  0  0
 16 17  2  0  0  0  0
 16 18  1  0  0  0  0
 18 19  2  0  0  0  0
 19 20  1  0  0  0  0
 19 21  1  0  0  0  0
 20 36  1  0  0  0  0
 21 22  1  0  0  0  0
 21 37  1  0  0  0  0
 22 23  1  0  0  0  0
 22 27  1  0  0  0  0
 22 38  1  0  0  0  0
 23 24  1  0  0  0  0
 23 39  1  0  0  0  0
 23 40  1  0  0  0  0
 24 25  1  0  0  0  0
 24 41  1  0  0  0  0
 24 42  1  0  0  0  0
 25 26  1  0  0  0  0
 25 43  1  0  0  0  0
 25 44  1  0  0  0  0
 26 27  1  0  0  0  0
 26 45  1  0  0  0  0
 26 46  1  0  0  0  0
 27 47  1  0  0  0  0
 27 48  1  0  0  0  0
M  END
> <OPENEYE_ISO_SMILES>
c1cc(ccc1Nc2cc(nc3n2ncn3)NC4CCCCC4)S(=O)(=O)N

> <OPENEYE_INCHI>
InChI=1S/C17H21N7O2S/c18-27(25,26)14-8-6-13(7-9-14)22-16-10-15(21-12-4-2-1-3-5-12)23-17-19-11-20-24(16)17/h6-12,22H,1-5H2,(H2,18,25,26)(H,19,20,21,23)

> <OPENEYE_INCHIKEY>
VPOGRVWIIVMWRI-UHFFFAOYSA-N

> <FORMULA>
C17H21N7O2S

$$$$
