@<TRIPOS>MOLECULE
1MO
 50 53 0 0 0
SMALL
GASTEIGER

@<TRIPOS>ATOM
      1 N          -5.2580   -9.9090   -0.9160 N.am    1  UNL1       -0.2925
      2 O          -3.7430   -8.4750   -1.8210 O.2     1  UNL1       -0.2727
      3 O          -6.6720   -9.9130   -3.3290 O.3     1  UNL1       -0.3570
      4 C          -6.4330  -10.7040   -1.0870 C.3     1  UNL1        0.0812
      5 C          -4.5700  -10.0070    0.3740 C.3     1  UNL1        0.0040
      6 C          -4.7880   -9.1100   -1.9500 C.2     1  UNL1        0.2451
      7 C          -5.5920   -9.0080   -3.3060 C.3     1  UNL1        0.1393
      8 C          -7.3950  -10.0670   -2.1500 C.3     1  UNL1        0.1072
      9 C          -6.0310  -12.1520   -1.3150 C.ar    1  UNL1       -0.0242
     10 C          -6.6970  -13.1660   -0.5770 C.ar    1  UNL1       -0.0553
     11 C          -6.4040  -14.5310   -0.8030 C.ar    1  UNL1       -0.0431
     12 C          -5.4510  -14.8850   -1.7540 C.ar    1  UNL1        0.0410
     13 CL         -5.1610  -16.5590   -2.1090 Cl      1  UNL1       -0.0835
     14 C          -4.7830  -13.8510   -2.4660 C.ar    1  UNL1       -0.0431
     15 C          -5.0620  -12.5110   -2.2530 C.ar    1  UNL1       -0.0553
     16 C          -8.5710  -10.9230   -2.4490 C.ar    1  UNL1       -0.0167
     17 C          -8.7100  -11.5700   -3.7010 C.ar    1  UNL1       -0.0547
     18 C          -9.8820  -12.3060   -3.9710 C.ar    1  UNL1       -0.0430
     19 C         -10.9240  -12.4130   -3.0080 C.ar    1  UNL1        0.0410
     20 CL        -12.3630  -13.2480   -3.3500 Cl      1  UNL1       -0.0835
     21 C         -10.7570  -11.7710   -1.7660 C.ar    1  UNL1       -0.0430
     22 C          -9.5980  -11.0370   -1.4790 C.ar    1  UNL1       -0.0547
     23 C          -6.0190   -7.5520   -3.5590 C.3     1  UNL1        0.0073
     24 C          -5.3280   -6.8320   -4.7120 C.ar    1  UNL1       -0.0444
     25 C          -3.9880   -7.0600   -5.0820 C.ar    1  UNL1       -0.0585
     26 C          -3.4280   -6.3570   -6.1730 C.ar    1  UNL1       -0.0615
     27 C          -4.2080   -5.4380   -6.8800 C.ar    1  UNL1       -0.0617
     28 C          -5.5320   -5.2190   -6.5130 C.ar    1  UNL1       -0.0615
     29 C          -6.0800   -5.9040   -5.4470 C.ar    1  UNL1       -0.0585
     30 H          -7.0446  -10.7166   -0.1728 H       1  UNL1        0.0579
     31 H          -5.3017   -9.9028    1.1887 H       1  UNL1        0.0429
     32 H          -4.0725  -10.9851    0.4509 H       1  UNL1        0.0429
     33 H          -3.8192   -9.2067    0.4509 H       1  UNL1        0.0429
     34 H          -4.9352   -9.3023   -4.1378 H       1  UNL1        0.0696
     35 H          -7.7673   -9.1146   -1.7447 H       1  UNL1        0.0669
     36 H          -7.4476  -12.8873    0.1773 H       1  UNL1        0.0621
     37 H          -6.9273  -15.3102   -0.2294 H       1  UNL1        0.0632
     38 H          -4.0201  -14.1241   -3.2099 H       1  UNL1        0.0632
     39 H          -4.5241  -11.7360   -2.8187 H       1  UNL1        0.0621
     40 H          -7.9121  -11.4991   -4.4549 H       1  UNL1        0.0622
     41 H          -9.9928  -12.8067   -4.9441 H       1  UNL1        0.0632
     42 H         -11.5501  -11.8469   -1.0076 H       1  UNL1        0.0632
     43 H          -9.4853  -10.5488   -0.4997 H       1  UNL1        0.0622
     44 H          -7.0997   -7.5513   -3.7640 H       1  UNL1        0.0343
     45 H          -5.7259   -7.0006   -2.6534 H       1  UNL1        0.0343
     46 H          -3.3780   -7.7844   -4.5224 H       1  UNL1        0.0620
     47 H          -2.3820   -6.5327   -6.4644 H       1  UNL1        0.0618
     48 H          -3.7746   -4.8871   -7.7277 H       1  UNL1        0.0618
     49 H          -6.1442   -4.4976   -7.0741 H       1  UNL1        0.0618
     50 H          -7.1278   -5.7182   -5.1684 H       1  UNL1        0.0620
@<TRIPOS>BOND
     1     4     1    1
     2     5     1    1
     3     6     2    2
     4     6     1   am
     5     7     3    1
     6     7     6    1
     7     8     4    1
     8     8     3    1
     9     9     4    1
    10    10     9   ar
    11    11    10   ar
    12    12    11   ar
    13    13    12    1
    14    14    12   ar
    15    15     9   ar
    16    15    14   ar
    17    16     8    1
    18    17    16   ar
    19    18    17   ar
    20    19    18   ar
    21    20    19    1
    22    21    19   ar
    23    22    21   ar
    24    22    16   ar
    25    23     7    1
    26    24    23    1
    27    25    24   ar
    28    26    25   ar
    29    27    26   ar
    30    28    27   ar
    31    29    28   ar
    32    29    24   ar
    33     4    30    1
    34     5    31    1
    35     5    32    1
    36     5    33    1
    37     7    34    1
    38     8    35    1
    39    10    36    1
    40    11    37    1
    41    14    38    1
    42    15    39    1
    43    17    40    1
    44    18    41    1
    45    21    42    1
    46    22    43    1
    47    23    44    1
    48    23    45    1
    49    25    46    1
    50    26    47    1
    51    27    48    1
    52    28    49    1
    53    29    50    1
