@<TRIPOS>MOLECULE
5M9
 47 50 0 0 0
SMALL
GASTEIGER

@<TRIPOS>ATOM
      1 C          92.6380  -10.7810   11.5230 C.3     1  UNL1        0.0159
      2 C          92.3700   -9.8580   12.7140 C.ar    1  UNL1        0.1524
      3 N          93.1950   -8.9090   13.1620 N.ar    1  UNL1       -0.2112
      4 C          92.6520   -8.2960   14.2410 C.ar    1  UNL1        0.1593
      5 C          93.1160   -7.1530   15.0860 C.ar    1  UNL1       -0.0048
      6 N          91.4650   -8.9000   14.4420 N.ar    1  UNL1       -0.2156
      7 C          92.2670   -6.7380   16.1750 C.ar    1  UNL1       -0.0352
      8 C          94.4570   -6.4330   14.8700 C.3     1  UNL1       -0.0361
      9 C          91.0510   -7.3800   16.4080 C.ar    1  UNL1        0.0624
     10 CL         90.0950   -6.8300   17.7500 Cl      1  UNL1       -0.0817
     11 C          90.6090   -8.4910   15.5620 C.ar    1  UNL1        0.0604
     12 C          89.2660   -9.2470   15.7490 C.3     1  UNL1       -0.0208
     13 N          91.2770   -9.8790   13.5140 N.ar    1  UNL1       -0.1498
     14 C          94.0730  -11.3370   11.7390 C.3     1  UNL1        0.0140
     15 C          94.3980  -12.1390   10.5070 C.ar    1  UNL1        0.1297
     16 N          93.5240  -12.5240    9.5980 N.ar    1  UNL1       -0.1986
     17 C          94.2130  -13.1830    8.6470 C.ar    1  UNL1        0.2372
     18 N          95.4630  -13.2050    8.9720 N.ar    1  UNL1       -0.1337
     19 N          95.5990  -12.5580   10.1510 N.ar    1  UNL1       -0.2504
     20 C          96.8510  -12.3470   10.8770 C.3     1  UNL1        0.0322
     21 N          93.6640  -13.8020    7.4260 N.pl3   1  UNL1       -0.2984
     22 C          92.3230  -13.9620    6.9740 C.3     1  UNL1        0.0150
     23 C          92.4370  -14.6920    5.6760 C.3     1  UNL1       -0.0357
     24 C          93.7990  -14.4510    5.1910 C.3     1  UNL1       -0.0357
     25 C          94.5860  -14.0170    6.3930 C.3     1  UNL1        0.0150
     26 H          91.9070  -11.6027   11.5021 H       1  UNL1        0.0348
     27 H          92.5487  -10.2463   10.5658 H       1  UNL1        0.0348
     28 H          92.5806   -5.9092   16.8267 H       1  UNL1        0.0636
     29 H          94.9052   -6.1923   15.8453 H       1  UNL1        0.0279
     30 H          95.1375   -7.0870   14.3051 H       1  UNL1        0.0279
     31 H          94.2878   -5.5044   14.3051 H       1  UNL1        0.0279
     32 H          89.0577   -9.3643   16.8227 H       1  UNL1        0.0293
     33 H          88.4538   -8.6735   15.2784 H       1  UNL1        0.0293
     34 H          89.3349  -10.2389   15.2784 H       1  UNL1        0.0293
     35 H          94.7893  -10.5105   11.8568 H       1  UNL1        0.0348
     36 H          94.1333  -11.9534   12.6481 H       1  UNL1        0.0348
     37 H          96.6572  -12.3797   11.9593 H       1  UNL1        0.0473
     38 H          97.5680  -13.1370   10.6089 H       1  UNL1        0.0473
     39 H          97.2694  -11.3657   10.6089 H       1  UNL1        0.0473
     40 H          91.7385  -14.5491    7.6977 H       1  UNL1        0.0464
     41 H          91.8071  -12.9970    6.8614 H       1  UNL1        0.0464
     42 H          92.2710  -15.7687    5.8280 H       1  UNL1        0.0281
     43 H          91.6856  -14.3434    4.9521 H       1  UNL1        0.0281
     44 H          94.2238  -15.3725    4.7664 H       1  UNL1        0.0281
     45 H          93.8189  -13.6910    4.3960 H       1  UNL1        0.0281
     46 H          95.3008  -14.8020    6.6810 H       1  UNL1        0.0464
     47 H          95.1593  -13.1027    6.1797 H       1  UNL1        0.0464
@<TRIPOS>BOND
     1     2     1    1
     2     3     2   ar
     3     4     3   ar
     4     5     4   ar
     5     6     4   ar
     6     7     5   ar
     7     8     5    1
     8     9     7   ar
     9    10     9    1
    10    11     6   ar
    11    11     9   ar
    12    12    11    1
    13    13     6   ar
    14    13     2   ar
    15    14     1    1
    16    15    14    1
    17    16    15   ar
    18    17    16   ar
    19    18    17   ar
    20    19    18   ar
    21    19    15   ar
    22    20    19    1
    23    21    17    1
    24    22    21    1
    25    23    22    1
    26    24    23    1
    27    25    24    1
    28    25    21    1
    29     1    26    1
    30     1    27    1
    31     7    28    1
    32     8    29    1
    33     8    30    1
    34     8    31    1
    35    12    32    1
    36    12    33    1
    37    12    34    1
    38    14    35    1
    39    14    36    1
    40    20    37    1
    41    20    38    1
    42    20    39    1
    43    22    40    1
    44    22    41    1
    45    23    42    1
    46    23    43    1
    47    24    44    1
    48    24    45    1
    49    25    46    1
    50    25    47    1
