IE8
  Mrv15b2303062314152D          

 30 34  0  0  0  0            999 V2000
   -0.5829    2.2166    0.0000 C   0  0  0  0  0  0  0  0  0  0  0  0
   -0.8378    3.0012    0.0000 N   0  0  0  0  0  0  0  0  0  0  0  0
    0.4791    1.2605    0.0000 O   0  0  0  0  0  0  0  0  0  0  0  0
    0.2241    2.0451    0.0000 C   0  0  2  0  0  0  0  0  0  0  0  0
   -1.4320    0.2058    0.0000 N   0  0  0  0  0  0  0  0  0  0  0  0
   -2.2720   -2.4114    0.0000 O   0  0  0  0  0  0  0  0  0  0  0  0
   -0.0730    0.6474    0.0000 C   0  0  0  0  0  0  0  0  0  0  0  0
   -0.1151   -2.8698    0.0000 N   0  0  0  0  0  0  0  0  0  0  0  0
   -0.8799    0.8189    0.0000 C   0  0  0  0  0  0  0  0  0  0  0  0
    1.3840   -3.0274    0.0000 N   0  0  0  0  0  0  0  0  0  0  0  0
   -1.1770   -0.5788    0.0000 C   0  0  0  0  0  0  0  0  0  0  0  0
   -1.7291   -1.1919    0.0000 C   0  0  0  0  0  0  0  0  0  0  0  0
   -2.5496   -1.1057    0.0000 C   0  0  0  0  0  0  0  0  0  0  0  0
   -2.8851   -1.8594    0.0000 C   0  0  0  0  0  0  0  0  0  0  0  0
   -1.5575   -1.9989    0.0000 C   0  0  0  0  0  0  0  0  0  0  0  0
   -0.3701   -0.7503    0.0000 C   0  0  0  0  0  0  0  0  0  0  0  0
    0.1820   -0.1373    0.0000 C   0  0  0  0  0  0  0  0  0  0  0  0
   -0.1151   -1.5350    0.0000 C   0  0  0  0  0  0  0  0  0  0  0  0
   -0.6001   -2.2024    0.0000 C   0  0  0  0  0  0  0  0  0  0  0  0
    0.6695   -2.6149    0.0000 C   0  0  0  0  0  0  0  0  0  0  0  0
    2.0984   -2.6149    0.0000 C   0  0  0  0  0  0  0  0  0  0  0  0
    2.0984   -1.7899    0.0000 C   0  0  0  0  0  0  0  0  0  0  0  0
    1.3840   -1.3774    0.0000 C   0  0  0  0  0  0  0  0  0  0  0  0
    0.6695   -1.7899    0.0000 C   0  0  0  0  0  0  0  0  0  0  0  0
    0.7762    2.6582    0.0000 C   0  0  0  0  0  0  0  0  0  0  0  0
    0.5212    3.4428    0.0000 C   0  0  0  0  0  0  0  0  0  0  0  0
    1.0732    4.0559    0.0000 C   0  0  0  0  0  0  0  0  0  0  0  0
    1.8802    3.8844    0.0000 C   0  0  0  0  0  0  0  0  0  0  0  0
    2.1352    3.0997    0.0000 C   0  0  0  0  0  0  0  0  0  0  0  0
    1.5831    2.4867    0.0000 C   0  0  0  0  0  0  0  0  0  0  0  0
  1  2  1  0  0  0  0
  1  4  1  0  0  0  0
  4  3  1  1  0  0  0
  3  7  1  0  0  0  0
  4 25  1  0  0  0  0
  5  9  4  0  0  0  0
  5 11  4  0  0  0  0
  6 14  4  0  0  0  0
  6 15  4  0  0  0  0
  7  9  4  0  0  0  0
  7 17  4  0  0  0  0
  8 19  4  0  0  0  0
  8 20  4  0  0  0  0
 10 20  4  0  0  0  0
 10 21  4  0  0  0  0
 11 12  1  0  0  0  0
 11 16  4  0  0  0  0
 12 13  4  0  0  0  0
 12 15  4  0  0  0  0
 13 14  4  0  0  0  0
 16 17  4  0  0  0  0
 16 18  1  0  0  0  0
 18 19  4  0  0  0  0
 18 24  4  0  0  0  0
 20 24  4  0  0  0  0
 21 22  4  0  0  0  0
 22 23  4  0  0  0  0
 23 24  4  0  0  0  0
 25 26  4  0  0  0  0
 25 30  4  0  0  0  0
 26 27  4  0  0  0  0
 27 28  4  0  0  0  0
 28 29  4  0  0  0  0
 29 30  4  0  0  0  0
M  STY  1   1 DAT
M  SAL   1  1   8
M  SDT   1 MRV_IMPLICIT_H                                        
M  SDD   1     0.0000    0.0000    DR    ALL  0       0  
M  SED   1 IMPL_H1
M  END
