IE8
  -OEChem-11042215103D

 50 54  0     1  0  0  0  0  0999 V2000
    3.2040    0.9710    1.8270 C   0  0  0  0  0  0  0  0  0  0  0  0
    1.8160    0.9700    2.3080 N   0  0  0  0  0  0  0  0  0  0  0  0
    2.7850   -1.0130    0.5130 O   0  0  0  0  0  0  0  0  0  0  0  0
    3.2630    0.3310    0.4380 C   0  0  2  0  0  0  0  0  0  0  0  0
   -0.3820   -2.6820    0.2400 N   0  0  0  0  0  0  0  0  0  0  0  0
   -4.6740   -2.7670   -0.0930 O   0  0  0  0  0  0  0  0  0  0  0  0
    1.4570   -1.2090    0.3000 C   0  0  0  0  0  0  0  0  0  0  0  0
   -2.6080    2.3460   -1.8030 N   0  0  0  0  0  0  0  0  0  0  0  0
    0.9030   -2.4750    0.4420 C   0  0  0  0  0  0  0  0  0  0  0  0
   -4.3610    2.9480   -0.1580 N   0  0  0  0  0  0  0  0  0  0  0  0
   -1.2030   -1.6990   -0.1050 C   0  0  0  0  0  0  0  0  0  0  0  0
   -2.6410   -1.9830   -0.3200 C   0  0  0  0  0  0  0  0  0  0  0  0
   -3.4940   -1.4680   -1.3970 C   0  0  0  0  0  0  0  0  0  0  0  0
   -4.7140   -1.9910   -1.1870 C   0  0  0  0  0  0  0  0  0  0  0  0
   -3.4430   -2.7750    0.4390 C   0  0  0  0  0  0  0  0  0  0  0  0
   -0.7180   -0.3910   -0.2680 C   0  0  0  0  0  0  0  0  0  0  0  0
    0.6400   -0.1440   -0.0600 C   0  0  0  0  0  0  0  0  0  0  0  0
   -1.6330    0.7080   -0.6540 C   0  0  0  0  0  0  0  0  0  0  0  0
   -1.6090    1.4150   -1.8110 C   0  0  0  0  0  0  0  0  0  0  0  0
   -3.3210    2.2730   -0.6290 C   0  0  0  0  0  0  0  0  0  0  0  0
   -4.8770    2.6870    1.0240 C   0  0  0  0  0  0  0  0  0  0  0  0
   -4.3610    1.6900    1.8360 C   0  0  0  0  0  0  0  0  0  0  0  0
   -3.2760    0.9520    1.3990 C   0  0  0  0  0  0  0  0  0  0  0  0
   -2.7450    1.2470    0.1430 C   0  0  0  0  0  0  0  0  0  0  0  0
    4.6870    0.3320   -0.0550 C   0  0  0  0  0  0  0  0  0  0  0  0
    5.1350    1.3550   -0.8690 C   0  0  0  0  0  0  0  0  0  0  0  0
    6.4420    1.3550   -1.3220 C   0  0  0  0  0  0  0  0  0  0  0  0
    7.2990    0.3330   -0.9600 C   0  0  0  0  0  0  0  0  0  0  0  0
    6.8500   -0.6890   -0.1450 C   0  0  0  0  0  0  0  0  0  0  0  0
    5.5450   -0.6870    0.3120 C   0  0  0  0  0  0  0  0  0  0  0  0
    3.5680    1.9970    1.7700 H   0  0  0  0  0  0  0  0  0  0  0  0
    3.8270    0.4010    2.5160 H   0  0  0  0  0  0  0  0  0  0  0  0
    1.7500    1.3880    3.2240 H   0  0  0  0  0  0  0  0  0  0  0  0
    1.2060    1.4370    1.6530 H   0  0  0  0  0  0  0  0  0  0  0  0
    2.6390    0.9010   -0.2510 H   0  0  0  0  0  0  0  0  0  0  0  0
   -2.7880    2.9720   -2.5220 H   0  0  0  0  0  0  0  0  0  0  0  0
    1.5370   -3.3030    0.7220 H   0  0  0  0  0  0  0  0  0  0  0  0
   -3.2020   -0.8020   -2.1960 H   0  0  0  0  0  0  0  0  0  0  0  0
   -5.5850   -1.8160   -1.8000 H   0  0  0  0  0  0  0  0  0  0  0  0
   -3.1410   -3.3190    1.3220 H   0  0  0  0  0  0  0  0  0  0  0  0
    1.0460    0.8500   -0.1770 H   0  0  0  0  0  0  0  0  0  0  0  0
   -0.9050    1.2640   -2.6160 H   0  0  0  0  0  0  0  0  0  0  0  0
   -5.7240    3.2610    1.3680 H   0  0  0  0  0  0  0  0  0  0  0  0
   -4.8000    1.4920    2.8030 H   0  0  0  0  0  0  0  0  0  0  0  0
   -2.8520    0.1700    2.0110 H   0  0  0  0  0  0  0  0  0  0  0  0
    4.4650    2.1530   -1.1520 H   0  0  0  0  0  0  0  0  0  0  0  0
    6.7920    2.1540   -1.9590 H   0  0  0  0  0  0  0  0  0  0  0  0
    8.3190    0.3330   -1.3140 H   0  0  0  0  0  0  0  0  0  0  0  0
    7.5200   -1.4880    0.1380 H   0  0  0  0  0  0  0  0  0  0  0  0
    5.1960   -1.4840    0.9510 H   0  0  0  0  0  0  0  0  0  0  0  0
  1  2  1  0  0  0  0
  1  4  1  0  0  0  0
  3  4  1  0  0  0  0
  3  7  1  0  0  0  0
  4 25  1  0  0  0  0
  5  9  2  0  0  0  0
  5 11  1  0  0  0  0
  6 14  1  0  0  0  0
  6 15  1  0  0  0  0
  7  9  1  0  0  0  0
  7 17  2  0  0  0  0
  8 19  1  0  0  0  0
  8 20  1  0  0  0  0
 10 20  2  0  0  0  0
 10 21  1  0  0  0  0
 11 12  1  0  0  0  0
 11 16  2  0  0  0  0
 12 13  1  0  0  0  0
 12 15  2  0  0  0  0
 13 14  2  0  0  0  0
 16 17  1  0  0  0  0
 16 18  1  0  0  0  0
 18 19  2  0  0  0  0
 18 24  1  0  0  0  0
 20 24  1  0  0  0  0
 21 22  2  0  0  0  0
 22 23  1  0  0  0  0
 23 24  2  0  0  0  0
 25 26  2  0  0  0  0
 25 30  1  0  0  0  0
 26 27  1  0  0  0  0
 27 28  2  0  0  0  0
 28 29  1  0  0  0  0
 29 30  2  0  0  0  0
  1 31  1  0  0  0  0
  1 32  1  0  0  0  0
  2 33  1  0  0  0  0
  2 34  1  0  0  0  0
  4 35  1  0  0  0  0
  8 36  1  0  0  0  0
  9 37  1  0  0  0  0
 13 38  1  0  0  0  0
 14 39  1  0  0  0  0
 15 40  1  0  0  0  0
 17 41  1  0  0  0  0
 19 42  1  0  0  0  0
 21 43  1  0  0  0  0
 22 44  1  0  0  0  0
 23 45  1  0  0  0  0
 26 46  1  0  0  0  0
 27 47  1  0  0  0  0
 28 48  1  0  0  0  0
 29 49  1  0  0  0  0
 30 50  1  0  0  0  0
M  END
> <OPENEYE_ISO_SMILES>
c1ccc(cc1)[C@H](CN)Oc2cc(c(nc2)c3ccoc3)c4c[nH]c5c4cccn5

> <OPENEYE_INCHI>
InChI=1S/C24H20N4O2/c25-12-22(16-5-2-1-3-6-16)30-18-11-20(23(27-13-18)17-8-10-29-15-17)21-14-28-24-19(21)7-4-9-26-24/h1-11,13-15,22H,12,25H2,(H,26,28)/t22-/m0/s1

> <OPENEYE_INCHIKEY>
GQBPIQNQRCHGPJ-QFIPXVFZSA-N

> <FORMULA>
C24H20N4O2

$$$$
