@<TRIPOS>MOLECULE
IE8
 50 54 0 0 0
SMALL
GASTEIGER

@<TRIPOS>ATOM
      1 C           3.2040    0.9710    1.8270 C.3     1  LIG1        0.0348
      2 N           1.8160    0.9700    2.3080 N.3     1  LIG1       -0.3265
      3 O           2.7850   -1.0130    0.5130 O.3     1  LIG1       -0.4814
      4 C           3.2630    0.3310    0.4380 C.3     1  LIG1        0.1374
      5 N          -0.3820   -2.6820    0.2400 N.ar    1  LIG1       -0.2506
      6 O          -4.6740   -2.7670   -0.0930 O.2     1  LIG1       -0.4704
      7 C           1.4570   -1.2090    0.3000 C.ar    1  LIG1        0.1401
      8 N          -2.6080    2.3460   -1.8030 N.ar    1  LIG1       -0.3452
      9 C           0.9030   -2.4750    0.4420 C.ar    1  LIG1        0.0699
     10 N          -4.3610    2.9480   -0.1580 N.ar    1  LIG1       -0.2375
     11 C          -1.2030   -1.6990   -0.1050 C.ar    1  LIG1        0.0820
     12 C          -2.6410   -1.9830   -0.3200 C.ar    1  LIG1        0.0386
     13 C          -3.4940   -1.4680   -1.3970 C.ar    1  LIG1       -0.0147
     14 C          -4.7140   -1.9910   -1.1870 C.ar    1  LIG1        0.0923
     15 C          -3.4430   -2.7750    0.4390 C.ar    1  LIG1        0.1008
     16 C          -0.7180   -0.3910   -0.2680 C.ar    1  LIG1        0.0137
     17 C           0.6400   -0.1440   -0.0600 C.ar    1  LIG1       -0.0086
     18 C          -1.6330    0.7080   -0.6540 C.ar    1  LIG1        0.0109
     19 C          -1.6090    1.4150   -1.8110 C.ar    1  LIG1        0.0119
     20 C          -3.3210    2.2730   -0.6290 C.ar    1  LIG1        0.1387
     21 C          -4.8770    2.6870    1.0240 C.ar    1  LIG1        0.0299
     22 C          -4.3610    1.6900    1.8360 C.ar    1  LIG1       -0.0429
     23 C          -3.2760    0.9520    1.3990 C.ar    1  LIG1       -0.0490
     24 C          -2.7450    1.2470    0.1430 C.ar    1  LIG1        0.0264
     25 C           4.6870    0.3320   -0.0550 C.ar    1  LIG1       -0.0061
     26 C           5.1350    1.3550   -0.8690 C.ar    1  LIG1       -0.0550
     27 C           6.4420    1.3550   -1.3220 C.ar    1  LIG1       -0.0614
     28 C           7.2990    0.3330   -0.9600 C.ar    1  LIG1       -0.0617
     29 C           6.8500   -0.6890   -0.1450 C.ar    1  LIG1       -0.0614
     30 C           5.5450   -0.6870    0.3120 C.ar    1  LIG1       -0.0550
     31 H           3.5680    1.9970    1.7700 H       1  LIG1        0.0462
     32 H           3.8270    0.4010    2.5160 H       1  LIG1        0.0462
     33 H           1.7500    1.3880    3.2240 H       1  LIG1        0.1183
     34 H           1.2060    1.4370    1.6530 H       1  LIG1        0.1183
     35 H           2.6390    0.9010   -0.2510 H       1  LIG1        0.0797
     36 H          -2.7880    2.9720   -2.5220 H       1  LIG1        0.1668
     37 H           1.5370   -3.3030    0.7220 H       1  LIG1        0.0867
     38 H          -3.2020   -0.8020   -2.1960 H       1  LIG1        0.0655
     39 H          -5.5850   -1.8160   -1.8000 H       1  LIG1        0.1029
     40 H          -3.1410   -3.3190    1.3220 H       1  LIG1        0.1036
     41 H           1.0460    0.8500   -0.1770 H       1  LIG1        0.0661
     42 H          -0.9050    1.2640   -2.6160 H       1  LIG1        0.0814
     43 H          -5.7240    3.2610    1.3680 H       1  LIG1        0.0830
     44 H          -4.8000    1.4920    2.8030 H       1  LIG1        0.0633
     45 H          -2.8520    0.1700    2.0110 H       1  LIG1        0.0625
     46 H           4.4650    2.1530   -1.1520 H       1  LIG1        0.0621
     47 H           6.7920    2.1540   -1.9590 H       1  LIG1        0.0618
     48 H           8.3190    0.3330   -1.3140 H       1  LIG1        0.0618
     49 H           7.5200   -1.4880    0.1380 H       1  LIG1        0.0618
     50 H           5.1960   -1.4840    0.9510 H       1  LIG1        0.0621
@<TRIPOS>BOND
     1     1     2    1
     2     1     4    1
     3     3     4    1
     4     3     7    1
     5     4    25    1
     6     5     9   ar
     7     5    11   ar
     8     6    14   ar
     9     6    15   ar
    10     7     9   ar
    11     7    17   ar
    12     8    19   ar
    13     8    20   ar
    14    10    20   ar
    15    10    21   ar
    16    11    12    1
    17    11    16   ar
    18    12    13   ar
    19    12    15   ar
    20    13    14   ar
    21    16    17   ar
    22    16    18    1
    23    18    19   ar
    24    18    24   ar
    25    20    24   ar
    26    21    22   ar
    27    22    23   ar
    28    23    24   ar
    29    25    26   ar
    30    25    30   ar
    31    26    27   ar
    32    27    28   ar
    33    28    29   ar
    34    29    30   ar
    35     1    31    1
    36     1    32    1
    37     2    33    1
    38     2    34    1
    39     4    35    1
    40     8    36    1
    41     9    37    1
    42    13    38    1
    43    14    39    1
    44    15    40    1
    45    17    41    1
    46    19    42    1
    47    21    43    1
    48    22    44    1
    49    23    45    1
    50    26    46    1
    51    27    47    1
    52    28    48    1
    53    29    49    1
    54    30    50    1
