@<TRIPOS>MOLECULE
2KR
 42 45 0 0 0
SMALL
GASTEIGER

@<TRIPOS>ATOM
      1 C          94.7680   -2.6940   13.9960 C.ar    1  UNL1        0.0530
      2 C          95.2020   -3.3000   15.1810 C.ar    1  UNL1       -0.0359
      3 C          94.7630   -4.5870   15.4930 C.ar    1  UNL1       -0.0386
      4 C          93.9180   -5.2590   14.6290 C.ar    1  UNL1        0.0325
      5 C          93.4950   -4.6350   13.4470 C.ar    1  UNL1       -0.0386
      6 C          93.9230   -3.3750   13.1400 C.ar    1  UNL1       -0.0359
      7 N          95.1400   -1.4520   13.5910 N.ar    1  UNL1       -0.2468
      8 C          94.5740   -0.2730   13.9830 C.ar    1  UNL1        0.3047
      9 N          95.1590    0.7410   13.3340 N.ar    1  UNL1       -0.1930
     10 C          96.1150    0.2040   12.4810 C.ar    1  UNL1        0.1120
     11 C          97.0150    0.7500   11.5820 C.ar    1  UNL1       -0.0311
     12 C          96.0850   -1.1640   12.6400 C.ar    1  UNL1        0.1676
     13 C          97.8820   -0.0870   10.8420 C.ar    1  UNL1       -0.0414
     14 C          97.7990   -1.4580   11.0510 C.ar    1  UNL1        0.0300
     15 N          96.9360   -1.9700   11.9130 N.ar    1  UNL1       -0.2354
     16 O          93.5200   -0.1230   14.9420 O.3     1  UNL1       -0.4666
     17 C          93.9600    0.5730   16.1450 C.3     1  UNL1        0.0819
     18 N          93.4070   -6.5990   14.8450 N.pl3   1  UNL1       -0.2994
     19 C          93.6910   -7.7850   14.0740 C.ar    1  UNL1        0.1229
     20 C          92.5780   -8.6050   13.6980 C.ar    1  UNL1       -0.0213
     21 C          92.7720   -9.7640   12.9560 C.ar    1  UNL1       -0.0542
     22 C          94.0580  -10.0790   12.5960 C.ar    1  UNL1       -0.0322
     23 C          94.3150  -11.3670   11.7550 C.3     1  UNL1       -0.0383
     24 C          95.1450   -9.2290   12.9780 C.ar    1  UNL1        0.0326
     25 N          94.9150   -8.1050   13.6940 N.ar    1  UNL1       -0.2399
     26 H          95.8831   -2.7662   15.8601 H       1  UNL1        0.0639
     27 H          95.0893   -5.0676   16.4271 H       1  UNL1        0.0637
     28 H          92.8145   -5.1633   12.7630 H       1  UNL1        0.0637
     29 H          93.5930   -2.8987   12.2050 H       1  UNL1        0.0639
     30 H          97.0560    1.8404   11.4425 H       1  UNL1        0.0640
     31 H          98.6000    0.3345   10.1231 H       1  UNL1        0.0633
     32 H          98.4636   -2.1306   10.4890 H       1  UNL1        0.0830
     33 H          93.6134    0.0247   17.0334 H       1  UNL1        0.0661
     34 H          95.0585    0.6298   16.1547 H       1  UNL1        0.0661
     35 H          93.5402    1.5897   16.1547 H       1  UNL1        0.0661
     36 H          92.7661   -6.7180   15.6425 H       1  UNL1        0.1536
     37 H          91.5607   -8.3146   13.9993 H       1  UNL1        0.0652
     38 H          91.9258  -10.4051   12.6680 H       1  UNL1        0.0622
     39 H          94.4849  -12.2183   12.4307 H       1  UNL1        0.0278
     40 H          93.4399  -11.5713   11.1206 H       1  UNL1        0.0278
     41 H          95.2015  -11.2199   11.1206 H       1  UNL1        0.0278
     42 H          96.1729   -9.4917   12.6875 H       1  UNL1        0.0833
@<TRIPOS>BOND
     1     2     1   ar
     2     3     2   ar
     3     4     3   ar
     4     5     4   ar
     5     6     5   ar
     6     6     1   ar
     7     7     1    1
     8     8     7   ar
     9     9     8   ar
    10    10     9   ar
    11    11    10   ar
    12    12    10   ar
    13    12     7   ar
    14    13    11   ar
    15    14    13   ar
    16    15    14   ar
    17    15    12   ar
    18    16     8    1
    19    17    16    1
    20    18     4    1
    21    19    18    1
    22    20    19   ar
    23    21    20   ar
    24    22    21   ar
    25    23    22    1
    26    24    22   ar
    27    25    24   ar
    28    25    19   ar
    29     2    26    1
    30     3    27    1
    31     5    28    1
    32     6    29    1
    33    11    30    1
    34    13    31    1
    35    14    32    1
    36    17    33    1
    37    17    34    1
    38    17    35    1
    39    18    36    1
    40    20    37    1
    41    21    38    1
    42    23    39    1
    43    23    40    1
    44    23    41    1
    45    24    42    1
