2KR
 OpenBabel10032210043D

 42 45  0  0  0  0  0  0  0  0999 V2000
   94.7680   -2.6940   13.9960 C   0  0  0  0  0  0  0  0  0  0  0  0
   95.2020   -3.3000   15.1810 C   0  0  0  0  0  0  0  0  0  0  0  0
   94.7630   -4.5870   15.4930 C   0  0  0  0  0  0  0  0  0  0  0  0
   93.9180   -5.2590   14.6290 C   0  0  0  0  0  0  0  0  0  0  0  0
   93.4950   -4.6350   13.4470 C   0  0  0  0  0  0  0  0  0  0  0  0
   93.9230   -3.3750   13.1400 C   0  0  0  0  0  0  0  0  0  0  0  0
   95.1400   -1.4520   13.5910 N   0  0  0  0  0  0  0  0  0  0  0  0
   94.5740   -0.2730   13.9830 C   0  0  0  0  0  0  0  0  0  0  0  0
   95.1590    0.7410   13.3340 N   0  0  0  0  0  0  0  0  0  0  0  0
   96.1150    0.2040   12.4810 C   0  0  0  0  0  0  0  0  0  0  0  0
   97.0150    0.7500   11.5820 C   0  0  0  0  0  0  0  0  0  0  0  0
   96.0850   -1.1640   12.6400 C   0  0  0  0  0  0  0  0  0  0  0  0
   97.8820   -0.0870   10.8420 C   0  0  0  0  0  0  0  0  0  0  0  0
   97.7990   -1.4580   11.0510 C   0  0  0  0  0  0  0  0  0  0  0  0
   96.9360   -1.9700   11.9130 N   0  0  0  0  0  0  0  0  0  0  0  0
   93.5200   -0.1230   14.9420 O   0  0  0  0  0  0  0  0  0  0  0  0
   93.9600    0.5730   16.1450 C   0  0  0  0  0  0  0  0  0  0  0  0
   93.4070   -6.5990   14.8450 N   0  0  0  0  0  0  0  0  0  0  0  0
   93.6910   -7.7850   14.0740 C   0  0  0  0  0  0  0  0  0  0  0  0
   92.5780   -8.6050   13.6980 C   0  0  0  0  0  0  0  0  0  0  0  0
   92.7720   -9.7640   12.9560 C   0  0  0  0  0  0  0  0  0  0  0  0
   94.0580  -10.0790   12.5960 C   0  0  0  0  0  0  0  0  0  0  0  0
   94.3150  -11.3670   11.7550 C   0  0  0  0  0  0  0  0  0  0  0  0
   95.1450   -9.2290   12.9780 C   0  0  0  0  0  0  0  0  0  0  0  0
   94.9150   -8.1050   13.6940 N   0  0  0  0  0  0  0  0  0  0  0  0
   95.8831   -2.7662   15.8601 H   0  0  0  0  0  0  0  0  0  0  0  0
   95.0893   -5.0676   16.4271 H   0  0  0  0  0  0  0  0  0  0  0  0
   92.8145   -5.1633   12.7630 H   0  0  0  0  0  0  0  0  0  0  0  0
   93.5930   -2.8987   12.2050 H   0  0  0  0  0  0  0  0  0  0  0  0
   97.0560    1.8404   11.4425 H   0  0  0  0  0  0  0  0  0  0  0  0
   98.6000    0.3345   10.1231 H   0  0  0  0  0  0  0  0  0  0  0  0
   98.4636   -2.1306   10.4890 H   0  0  0  0  0  0  0  0  0  0  0  0
   93.6134    0.0247   17.0334 H   0  0  0  0  0  0  0  0  0  0  0  0
   95.0585    0.6298   16.1547 H   0  0  0  0  0  0  0  0  0  0  0  0
   93.5402    1.5897   16.1547 H   0  0  0  0  0  0  0  0  0  0  0  0
   92.7661   -6.7180   15.6425 H   0  0  0  0  0  0  0  0  0  0  0  0
   91.5607   -8.3146   13.9993 H   0  0  0  0  0  0  0  0  0  0  0  0
   91.9258  -10.4051   12.6680 H   0  0  0  0  0  0  0  0  0  0  0  0
   94.4849  -12.2183   12.4307 H   0  0  0  0  0  0  0  0  0  0  0  0
   93.4399  -11.5713   11.1206 H   0  0  0  0  0  0  0  0  0  0  0  0
   95.2015  -11.2199   11.1206 H   0  0  0  0  0  0  0  0  0  0  0  0
   96.1729   -9.4917   12.6875 H   0  0  0  0  0  0  0  0  0  0  0  0
  2  1  2  0  0  0  0
  2 26  1  0  0  0  0
  3  2  1  0  0  0  0
  3 27  1  0  0  0  0
  4  3  2  0  0  0  0
  5  4  1  0  0  0  0
  5 28  1  0  0  0  0
  6  5  2  0  0  0  0
  6  1  1  0  0  0  0
  6 29  1  0  0  0  0
  7  1  1  0  0  0  0
  8  7  1  0  0  0  0
  9  8  2  0  0  0  0
 10  9  1  0  0  0  0
 11 10  1  0  0  0  0
 11 30  1  0  0  0  0
 12 10  2  0  0  0  0
 12  7  1  0  0  0  0
 13 11  2  0  0  0  0
 13 31  1  0  0  0  0
 14 13  1  0  0  0  0
 14 32  1  0  0  0  0
 15 14  2  0  0  0  0
 15 12  1  0  0  0  0
 16  8  1  0  0  0  0
 17 16  1  0  0  0  0
 17 33  1  0  0  0  0
 17 34  1  0  0  0  0
 17 35  1  0  0  0  0
 18  4  1  0  0  0  0
 18 36  1  0  0  0  0
 19 18  1  0  0  0  0
 20 19  2  0  0  0  0
 20 37  1  0  0  0  0
 21 20  1  0  0  0  0
 21 38  1  0  0  0  0
 22 21  2  0  0  0  0
 23 22  1  0  0  0  0
 23 39  1  0  0  0  0
 23 40  1  0  0  0  0
 23 41  1  0  0  0  0
 24 22  1  0  0  0  0
 24 42  1  0  0  0  0
 25 24  2  0  0  0  0
 25 19  1  0  0  0  0
M  END
$$$$
