@<TRIPOS>MOLECULE
X4C
 49 53 0 0 0
SMALL
GASTEIGER

@<TRIPOS>ATOM
      1 C          94.3350   -6.3810   13.6680 C.ar    1  UNL1        0.1157
      2 N          93.7550   -7.5260   13.3810 N.ar    1  UNL1       -0.2319
      3 N          93.7620   -5.7940   14.7600 N.ar    1  UNL1       -0.2960
      4 C          92.7730   -7.6920   14.3000 C.ar    1  UNL1        0.0899
      5 C          92.7540   -6.6230   15.1720 C.ar    1  UNL1        0.0736
      6 C          91.8860   -8.7380   14.4060 C.ar    1  UNL1       -0.0313
      7 C          91.8600   -6.4940   16.2130 C.ar    1  UNL1       -0.0355
      8 C          90.9880   -8.6350   15.4370 C.ar    1  UNL1       -0.0483
      9 C          90.9790   -7.5540   16.2970 C.ar    1  UNL1       -0.0568
     10 C          89.9940   -9.7150   15.6300 C.3     1  UNL1       -0.0396
     11 C          95.4630   -5.7920   12.9220 C.3     1  UNL1        0.0128
     12 C          94.9330   -4.8720   11.8410 C.3     1  UNL1        0.0128
     13 C          95.2720   -3.4800   12.1090 C.ar    1  UNL1        0.1160
     14 N          96.2430   -3.0650   12.8920 N.ar    1  UNL1       -0.2349
     15 C          96.1920   -1.6960   12.8450 C.ar    1  UNL1        0.0828
     16 C          95.1790   -1.2800   12.0130 C.ar    1  UNL1        0.1600
     17 C          97.1500   -0.9070   13.6260 C.3     1  UNL1       -0.0187
     18 N          94.5930   -2.4290   11.5530 N.ar    1  UNL1       -0.2877
     19 N          94.7080   -0.0700   11.6340 N.ar    1  UNL1       -0.2357
     20 C          93.5270   -2.4500   10.6910 C.ar    1  UNL1        0.0143
     21 C          93.0200   -1.2880   10.2690 C.ar    1  UNL1       -0.0269
     22 C          93.6990   -0.0870   10.8190 C.ar    1  UNL1        0.0313
     23 C          93.9020   -4.4790   15.2090 C.ar    1  UNL1        0.0483
     24 C          94.9350   -4.1580   16.0670 C.ar    1  UNL1       -0.0378
     25 C          95.1160   -2.8520   16.4750 C.ar    1  UNL1       -0.0598
     26 C          94.2470   -1.8750   16.0370 C.ar    1  UNL1       -0.0616
     27 C          93.2010   -2.2130   15.1940 C.ar    1  UNL1       -0.0598
     28 C          93.0280   -3.5170   14.7620 C.ar    1  UNL1       -0.0378
     29 H          91.8963   -9.5937   13.7149 H       1  UNL1        0.0642
     30 H          91.8494   -5.6378   16.9035 H       1  UNL1        0.0639
     31 H          90.2244   -7.5365   17.0971 H       1  UNL1        0.0621
     32 H          89.8394   -9.8830   16.7060 H       1  UNL1        0.0278
     33 H          89.0412   -9.4240   15.1637 H       1  UNL1        0.0278
     34 H          90.3629  -10.6405   15.1637 H       1  UNL1        0.0278
     35 H          96.0983   -5.2177   13.6123 H       1  UNL1        0.0347
     36 H          96.0544   -6.5960   12.4596 H       1  UNL1        0.0347
     37 H          95.3700   -5.1665   10.8754 H       1  UNL1        0.0347
     38 H          93.8369   -4.9616   11.8192 H       1  UNL1        0.0347
     39 H          96.9632   -1.0609   14.6990 H       1  UNL1        0.0294
     40 H          98.1737   -1.2274   13.3824 H       1  UNL1        0.0294
     41 H          97.0318    0.1592   13.3824 H       1  UNL1        0.0294
     42 H          93.0975   -3.4048   10.3534 H       1  UNL1        0.0814
     43 H          92.1708   -1.2261    9.5725 H       1  UNL1        0.0647
     44 H          93.3052    0.8900   10.5022 H       1  UNL1        0.0831
     45 H          95.6150   -4.9446   16.4261 H       1  UNL1        0.0638
     46 H          95.9484   -2.5920   17.1455 H       1  UNL1        0.0618
     47 H          94.3839   -0.8311   16.3558 H       1  UNL1        0.0618
     48 H          92.4979   -1.4344   14.8632 H       1  UNL1        0.0618
     49 H          92.2087   -3.7775   14.0758 H       1  UNL1        0.0638
@<TRIPOS>BOND
     1     2     1   ar
     2     3     1   ar
     3     4     2   ar
     4     5     4   ar
     5     5     3   ar
     6     6     4   ar
     7     7     5   ar
     8     8     6   ar
     9     9     8   ar
    10     9     7   ar
    11    10     8    1
    12    11     1    1
    13    12    11    1
    14    13    12    1
    15    14    13   ar
    16    15    14   ar
    17    16    15   ar
    18    17    15    1
    19    18    16   ar
    20    18    13   ar
    21    19    16   ar
    22    20    18   ar
    23    21    20   ar
    24    22    21   ar
    25    22    19   ar
    26    23     3    1
    27    24    23   ar
    28    25    24   ar
    29    26    25   ar
    30    27    26   ar
    31    28    27   ar
    32    28    23   ar
    33     6    29    1
    34     7    30    1
    35     9    31    1
    36    10    32    1
    37    10    33    1
    38    10    34    1
    39    11    35    1
    40    11    36    1
    41    12    37    1
    42    12    38    1
    43    17    39    1
    44    17    40    1
    45    17    41    1
    46    20    42    1
    47    21    43    1
    48    22    44    1
    49    24    45    1
    50    25    46    1
    51    26    47    1
    52    27    48    1
    53    28    49    1
