X4C
 OpenBabel10032210033D

 49 53  0  0  0  0  0  0  0  0999 V2000
   94.3350   -6.3810   13.6680 C   0  0  0  0  0  0  0  0  0  0  0  0
   93.7550   -7.5260   13.3810 N   0  0  0  0  0  0  0  0  0  0  0  0
   93.7620   -5.7940   14.7600 N   0  0  0  0  0  0  0  0  0  0  0  0
   92.7730   -7.6920   14.3000 C   0  0  0  0  0  0  0  0  0  0  0  0
   92.7540   -6.6230   15.1720 C   0  0  0  0  0  0  0  0  0  0  0  0
   91.8860   -8.7380   14.4060 C   0  0  0  0  0  0  0  0  0  0  0  0
   91.8600   -6.4940   16.2130 C   0  0  0  0  0  0  0  0  0  0  0  0
   90.9880   -8.6350   15.4370 C   0  0  0  0  0  0  0  0  0  0  0  0
   90.9790   -7.5540   16.2970 C   0  0  0  0  0  0  0  0  0  0  0  0
   89.9940   -9.7150   15.6300 C   0  0  0  0  0  0  0  0  0  0  0  0
   95.4630   -5.7920   12.9220 C   0  0  0  0  0  0  0  0  0  0  0  0
   94.9330   -4.8720   11.8410 C   0  0  0  0  0  0  0  0  0  0  0  0
   95.2720   -3.4800   12.1090 C   0  0  0  0  0  0  0  0  0  0  0  0
   96.2430   -3.0650   12.8920 N   0  0  0  0  0  0  0  0  0  0  0  0
   96.1920   -1.6960   12.8450 C   0  0  0  0  0  0  0  0  0  0  0  0
   95.1790   -1.2800   12.0130 C   0  0  0  0  0  0  0  0  0  0  0  0
   97.1500   -0.9070   13.6260 C   0  0  0  0  0  0  0  0  0  0  0  0
   94.5930   -2.4290   11.5530 N   0  0  0  0  0  0  0  0  0  0  0  0
   94.7080   -0.0700   11.6340 N   0  0  0  0  0  0  0  0  0  0  0  0
   93.5270   -2.4500   10.6910 C   0  0  0  0  0  0  0  0  0  0  0  0
   93.0200   -1.2880   10.2690 C   0  0  0  0  0  0  0  0  0  0  0  0
   93.6990   -0.0870   10.8190 C   0  0  0  0  0  0  0  0  0  0  0  0
   93.9020   -4.4790   15.2090 C   0  0  0  0  0  0  0  0  0  0  0  0
   94.9350   -4.1580   16.0670 C   0  0  0  0  0  0  0  0  0  0  0  0
   95.1160   -2.8520   16.4750 C   0  0  0  0  0  0  0  0  0  0  0  0
   94.2470   -1.8750   16.0370 C   0  0  0  0  0  0  0  0  0  0  0  0
   93.2010   -2.2130   15.1940 C   0  0  0  0  0  0  0  0  0  0  0  0
   93.0280   -3.5170   14.7620 C   0  0  0  0  0  0  0  0  0  0  0  0
   91.8963   -9.5937   13.7149 H   0  0  0  0  0  0  0  0  0  0  0  0
   91.8494   -5.6378   16.9035 H   0  0  0  0  0  0  0  0  0  0  0  0
   90.2244   -7.5365   17.0971 H   0  0  0  0  0  0  0  0  0  0  0  0
   89.8394   -9.8830   16.7060 H   0  0  0  0  0  0  0  0  0  0  0  0
   89.0412   -9.4240   15.1637 H   0  0  0  0  0  0  0  0  0  0  0  0
   90.3629  -10.6405   15.1637 H   0  0  0  0  0  0  0  0  0  0  0  0
   96.0983   -5.2177   13.6123 H   0  0  0  0  0  0  0  0  0  0  0  0
   96.0544   -6.5960   12.4596 H   0  0  0  0  0  0  0  0  0  0  0  0
   95.3700   -5.1665   10.8754 H   0  0  0  0  0  0  0  0  0  0  0  0
   93.8369   -4.9616   11.8192 H   0  0  0  0  0  0  0  0  0  0  0  0
   96.9632   -1.0609   14.6990 H   0  0  0  0  0  0  0  0  0  0  0  0
   98.1737   -1.2274   13.3824 H   0  0  0  0  0  0  0  0  0  0  0  0
   97.0318    0.1592   13.3824 H   0  0  0  0  0  0  0  0  0  0  0  0
   93.0975   -3.4048   10.3534 H   0  0  0  0  0  0  0  0  0  0  0  0
   92.1708   -1.2261    9.5725 H   0  0  0  0  0  0  0  0  0  0  0  0
   93.3052    0.8900   10.5022 H   0  0  0  0  0  0  0  0  0  0  0  0
   95.6150   -4.9446   16.4261 H   0  0  0  0  0  0  0  0  0  0  0  0
   95.9484   -2.5920   17.1455 H   0  0  0  0  0  0  0  0  0  0  0  0
   94.3839   -0.8311   16.3558 H   0  0  0  0  0  0  0  0  0  0  0  0
   92.4979   -1.4344   14.8632 H   0  0  0  0  0  0  0  0  0  0  0  0
   92.2087   -3.7775   14.0758 H   0  0  0  0  0  0  0  0  0  0  0  0
  2  1  2  0  0  0  0
  3  1  1  0  0  0  0
  4  2  1  0  0  0  0
  5  4  2  0  0  0  0
  5  3  1  0  0  0  0
  6  4  1  0  0  0  0
  6 29  1  0  0  0  0
  7  5  1  0  0  0  0
  7 30  1  0  0  0  0
  8  6  2  0  0  0  0
  9  8  1  0  0  0  0
  9  7  2  0  0  0  0
  9 31  1  0  0  0  0
 10  8  1  0  0  0  0
 10 32  1  0  0  0  0
 10 33  1  0  0  0  0
 10 34  1  0  0  0  0
 11  1  1  0  0  0  0
 11 35  1  0  0  0  0
 11 36  1  0  0  0  0
 12 11  1  0  0  0  0
 12 37  1  0  0  0  0
 12 38  1  0  0  0  0
 13 12  1  0  0  0  0
 14 13  2  0  0  0  0
 15 14  1  0  0  0  0
 16 15  2  0  0  0  0
 17 15  1  0  0  0  0
 17 39  1  0  0  0  0
 17 40  1  0  0  0  0
 17 41  1  0  0  0  0
 18 16  1  0  0  0  0
 18 13  1  0  0  0  0
 19 16  1  0  0  0  0
 20 18  1  0  0  0  0
 20 42  1  0  0  0  0
 21 20  2  0  0  0  0
 21 43  1  0  0  0  0
 22 21  1  0  0  0  0
 22 19  2  0  0  0  0
 22 44  1  0  0  0  0
 23  3  1  0  0  0  0
 24 23  2  0  0  0  0
 24 45  1  0  0  0  0
 25 24  1  0  0  0  0
 25 46  1  0  0  0  0
 26 25  2  0  0  0  0
 26 47  1  0  0  0  0
 27 26  1  0  0  0  0
 27 48  1  0  0  0  0
 28 27  2  0  0  0  0
 28 23  1  0  0  0  0
 28 49  1  0  0  0  0
M  END
$$$$
