@<TRIPOS>MOLECULE
0ZI
 74 76 0 0 0
SMALL
GASTEIGER

@<TRIPOS>ATOM
      1 C          15.9220  -12.9880   19.3000 C.3     1  UNL1        0.1050
      2 C          14.7300  -12.6150   20.1850 C.2     1  UNL1        0.2342
      3 O          14.4330  -11.4420   20.4760 O.2     1  UNL1       -0.2738
      4 N          13.7170  -13.6310   20.3340 N.am    1  UNL1       -0.3001
      5 C          12.6160  -13.1530   21.3270 C.3     1  UNL1        0.0150
      6 C          14.1860  -15.1210   20.2350 C.3     1  UNL1        0.0150
      7 C          11.3430  -13.9540   21.1000 C.3     1  UNL1       -0.0343
      8 C          11.6980  -15.5200   20.9920 C.3     1  UNL1       -0.0385
      9 C          12.8850  -15.9080   19.9450 C.3     1  UNL1       -0.0343
     10 C          10.4300  -16.0560   20.5880 C.3     1  UNL1       -0.0530
     11 C          10.4750  -17.0610   19.3990 C.3     1  UNL1       -0.0650
     12 C          17.1860  -13.0310   20.1280 C.3     1  UNL1       -0.0246
     13 C          18.7170  -12.9250   20.2100 C.3     1  UNL1       -0.0203
     14 C          19.2280  -14.2490   20.2230 C.3     1  UNL1        0.0646
     15 N          19.9610  -14.4310   21.5110 N.pl3   1  UNL1       -0.2787
     16 C          19.7080  -15.0450   22.6330 C.cat   1  UNL1        0.3410
     17 N          18.5540  -15.7680   22.7080 N.pl3   1  UNL1       -0.2919
     18 N          20.5320  -14.9550   23.6030 N.pl3   1  UNL1       -0.2919
     19 N          16.0700  -11.9810   18.2590 N.3     1  UNL1       -0.1780
     20 S          16.5200  -12.4630   16.6180 S.O2    1  UNL1        0.0596
     21 O          17.2840  -11.3030   16.0900 O.2     1  UNL1       -0.1530
     22 O          15.1440  -12.5330   15.9970 O.2     1  UNL1       -0.1530
     23 C          17.7720  -13.8550   16.6680 C.ar    1  UNL1        0.1130
     24 C          19.1430  -13.5250   16.4920 C.ar    1  UNL1       -0.0347
     25 C          20.0990  -14.5040   16.5510 C.ar    1  UNL1       -0.0593
     26 C          19.7290  -15.8360   16.8040 C.ar    1  UNL1       -0.0521
     27 C          18.3930  -16.1850   16.9760 C.ar    1  UNL1        0.0050
     28 C          18.0210  -17.4780   17.2090 C.ar    1  UNL1        0.0371
     29 C          17.3870  -15.1560   16.9050 C.ar    1  UNL1        0.0102
     30 C          16.6940  -17.8130   17.4210 C.ar    1  UNL1       -0.0401
     31 C          15.7210  -16.7960   17.3120 C.ar    1  UNL1       -0.0594
     32 C          16.0680  -15.4790   17.0900 C.ar    1  UNL1       -0.0520
     33 N          19.0030  -18.4700   17.3160 N.pl3   1  UNL1       -0.3355
     34 C          19.7420  -18.7950   18.5530 C.3     1  UNL1        0.0004
     35 C          18.6510  -19.8380   16.5250 C.3     1  UNL1        0.0004
     36 H          15.7484  -13.9774   18.8518 H       1  UNL1        0.0573
     37 H          12.9640  -13.3031   22.3597 H       1  UNL1        0.0464
     38 H          12.4110  -12.0853   21.1596 H       1  UNL1        0.0464
     39 H          14.9102  -15.2489   19.4170 H       1  UNL1        0.0464
     40 H          14.6930  -15.4655   21.1484 H       1  UNL1        0.0464
     41 H          10.6546  -13.7926   21.9426 H       1  UNL1        0.0283
     42 H          10.8671  -13.6235   20.1649 H       1  UNL1        0.0283
     43 H          12.1103  -15.9162   21.9317 H       1  UNL1        0.0302
     44 H          13.0943  -16.9848   20.0269 H       1  UNL1        0.0283
     45 H          12.5461  -15.6475   18.9314 H       1  UNL1        0.0283
     46 H           9.9899  -16.5738   21.4530 H       1  UNL1        0.0265
     47 H           9.8378  -15.1983   20.2362 H       1  UNL1        0.0265
     48 H          10.5210  -18.0885   19.7890 H       1  UNL1        0.0230
     49 H           9.5706  -16.9423   18.7841 H       1  UNL1        0.0230
     50 H          11.3651  -16.8620   18.7841 H       1  UNL1        0.0230
     51 H          16.9246  -12.2655   20.8734 H       1  UNL1        0.0286
     52 H          17.2904  -14.0979   19.8816 H       1  UNL1        0.0286
     53 H          19.1046  -12.3798   19.3368 H       1  UNL1        0.0296
     54 H          19.0233  -12.3788   21.1143 H       1  UNL1        0.0296
     55 H          18.4016  -14.9718   20.1551 H       1  UNL1        0.0655
     56 H          19.8987  -14.4153   19.3671 H       1  UNL1        0.0655
     57 H          20.8787  -13.9634   21.5138 H       1  UNL1        0.2578
     58 H          18.3154  -16.2687   23.5759 H       1  UNL1        0.2545
     59 H          17.9210  -15.8134   21.8967 H       1  UNL1        0.2545
     60 H          20.3365  -15.4383   24.4913 H       1  UNL1        0.2545
     61 H          21.3927  -14.3991   23.4977 H       1  UNL1        0.2545
     62 H          15.1661  -11.4923   18.1878 H       1  UNL1        0.1489
     63 H          19.4370  -12.4811   16.3080 H       1  UNL1        0.0637
     64 H          21.1579  -14.2473   16.4001 H       1  UNL1        0.0618
     65 H          20.5055  -16.6126   16.8669 H       1  UNL1        0.0624
     66 H          16.4055  -18.8453   17.6680 H       1  UNL1        0.0636
     67 H          14.6575  -17.0605   17.4066 H       1  UNL1        0.0618
     68 H          15.2947  -14.6972   17.0618 H       1  UNL1        0.0624
     69 H          19.1304  -18.5260   19.4269 H       1  UNL1        0.0428
     70 H          19.9614  -19.8726   18.5767 H       1  UNL1        0.0428
     71 H          20.6845  -18.2283   18.5767 H       1  UNL1        0.0428
     72 H          18.4450  -20.6386   17.2507 H       1  UNL1        0.0428
     73 H          17.7646  -19.6787   15.8934 H       1  UNL1        0.0428
     74 H          19.5042  -20.1263   15.8934 H       1  UNL1        0.0428
@<TRIPOS>UNITY_ATOM_ATTR
17 1
charge 1
@<TRIPOS>BOND
     1     2     1    1
     2     3     2    2
     3     4     2   am
     4     5     4    1
     5     6     4    1
     6     7     5    1
     7     8     7    1
     8     9     8    1
     9     9     6    1
    10    10     8    1
    11    11    10    1
    12    12     1    1
    13    13    12    1
    14    14    13    1
    15    15    14    1
    16    16    15    1
    17    17    16    2
    18    18    16    1
    19    19     1    1
    20    20    19    1
    21    21    20    2
    22    22    20    2
    23    23    20    1
    24    24    23   ar
    25    25    24   ar
    26    26    25   ar
    27    27    26   ar
    28    28    27   ar
    29    29    27   ar
    30    29    23   ar
    31    30    28   ar
    32    31    30   ar
    33    32    31   ar
    34    32    29   ar
    35    33    28    1
    36    34    33    1
    37    35    33    1
    38     1    36    1
    39     5    37    1
    40     5    38    1
    41     6    39    1
    42     6    40    1
    43     7    41    1
    44     7    42    1
    45     8    43    1
    46     9    44    1
    47     9    45    1
    48    10    46    1
    49    10    47    1
    50    11    48    1
    51    11    49    1
    52    11    50    1
    53    12    51    1
    54    12    52    1
    55    13    53    1
    56    13    54    1
    57    14    55    1
    58    14    56    1
    59    15    57    1
    60    17    58    1
    61    17    59    1
    62    18    60    1
    63    18    61    1
    64    19    62    1
    65    24    63    1
    66    25    64    1
    67    26    65    1
    68    30    66    1
    69    31    67    1
    70    32    68    1
    71    34    69    1
    72    34    70    1
    73    34    71    1
    74    35    72    1
    75    35    73    1
    76    35    74    1
