@<TRIPOS>MOLECULE
PU3
 52 54 0 0 0
SMALL
GASTEIGER

@<TRIPOS>ATOM
      1 N           6.2100    4.1790   22.6760 N.ar    1  UNL1       -0.2269
      2 N           5.0900    5.2450   24.3540 N.ar    1  UNL1       -0.3121
      3 N           9.0360    6.0840   24.1950 N.ar    1  UNL1       -0.2188
      4 N           6.9670    6.4780   25.2980 N.ar    1  UNL1       -0.2160
      5 N           9.2280    4.7210   22.3000 N.pl3   1  UNL1       -0.3413
      6 C           5.0470    4.4040   23.3000 C.ar    1  UNL1        0.1164
      7 C           7.0630    4.9500   23.3870 C.ar    1  UNL1        0.1475
      8 C           6.3410    5.6460   24.4460 C.ar    1  UNL1        0.1655
      9 C           8.4790    5.2700   23.2760 C.ar    1  UNL1        0.1472
     10 C           8.2990    6.6750   25.1700 C.ar    1  UNL1        0.1205
     11 C           3.7850    3.6740   22.9140 C.3     1  UNL1        0.0311
     12 C           3.1260    4.0490   21.5980 C.ar    1  UNL1       -0.0330
     13 C           2.8270    5.3950   21.2890 C.ar    1  UNL1       -0.0125
     14 C           2.1630    5.6870   20.0820 C.ar    1  UNL1        0.1654
     15 C           1.8050    4.6240   19.1560 C.ar    1  UNL1        0.2035
     16 C           2.1340    3.2570   19.4970 C.ar    1  UNL1        0.1654
     17 C           2.7740    3.0260   20.7330 C.ar    1  UNL1       -0.0125
     18 O           1.7370    6.9350   19.6690 O.3     1  UNL1       -0.4913
     19 C           2.6460    7.9380   19.3110 C.3     1  UNL1        0.0790
     20 O           1.1890    4.9340   17.9930 O.3     1  UNL1       -0.4885
     21 C           2.0240    5.0320   16.8230 C.3     1  UNL1        0.0791
     22 O           1.8800    2.2750   18.5630 O.3     1  UNL1       -0.4913
     23 C           3.0110    1.6340   17.9230 C.3     1  UNL1        0.0790
     24 C           4.0090    5.7480   25.2020 C.3     1  UNL1        0.0263
     25 C           3.5690    7.0700   24.5760 C.3     1  UNL1       -0.0351
     26 C           3.0650    8.1000   25.5710 C.3     1  UNL1       -0.0543
     27 C           3.3640    9.4720   24.9550 C.3     1  UNL1       -0.0652
     28 H          10.2292    4.9519   22.2275 H       1  UNL1        0.1438
     29 H           8.7995    4.0703   21.6263 H       1  UNL1        0.1438
     30 H           8.8054    7.3407   25.8845 H       1  UNL1        0.1048
     31 H           4.0273    2.6021   22.8662 H       1  UNL1        0.0392
     32 H           3.0524    3.9603   23.6829 H       1  UNL1        0.0392
     33 H           3.1086    6.2025   21.9808 H       1  UNL1        0.0658
     34 H           3.0031    1.9897   21.0219 H       1  UNL1        0.0658
     35 H           3.0621    8.3971   20.2199 H       1  UNL1        0.0660
     36 H           3.4605    7.4993   18.7159 H       1  UNL1        0.0660
     37 H           2.1295    8.7056   18.7159 H       1  UNL1        0.0660
     38 H           3.0730    5.1551   17.1304 H       1  UNL1        0.0660
     39 H           1.9230    4.1158   16.2226 H       1  UNL1        0.0660
     40 H           1.7136    5.8999   16.2226 H       1  UNL1        0.0660
     41 H           3.6957    1.2459   18.6915 H       1  UNL1        0.0660
     42 H           2.6551    0.8033   17.2958 H       1  UNL1        0.0660
     43 H           3.5408    2.3661   17.2958 H       1  UNL1        0.0660
     44 H           3.1718    5.0347   25.2185 H       1  UNL1        0.0493
     45 H           4.3403    5.8833   26.2422 H       1  UNL1        0.0493
     46 H           4.4288    7.5003   24.0417 H       1  UNL1        0.0282
     47 H           2.7237    6.8361   23.9121 H       1  UNL1        0.0282
     48 H           1.9829    7.9804   25.7285 H       1  UNL1        0.0263
     49 H           3.5540    7.9848   26.5496 H       1  UNL1        0.0263
     50 H           3.5242   10.2071   25.7574 H       1  UNL1        0.0230
     51 H           4.2687    9.4053   24.3328 H       1  UNL1        0.0230
     52 H           2.5136    9.7878   24.3328 H       1  UNL1        0.0230
@<TRIPOS>BOND
     1     6     2   ar
     2     6     1   ar
     3     7     1   ar
     4     8     2   ar
     5     8     7   ar
     6     8     4   ar
     7     9     7   ar
     8     9     5    1
     9     9     3   ar
    10    10     4   ar
    11    10     3   ar
    12    11     6    1
    13    12    11    1
    14    13    12   ar
    15    14    13   ar
    16    15    14   ar
    17    16    15   ar
    18    17    16   ar
    19    17    12   ar
    20    18    14    1
    21    19    18    1
    22    20    15    1
    23    21    20    1
    24    22    16    1
    25    23    22    1
    26    24     2    1
    27    25    24    1
    28    26    25    1
    29    27    26    1
    30     5    28    1
    31     5    29    1
    32    10    30    1
    33    11    31    1
    34    11    32    1
    35    13    33    1
    36    17    34    1
    37    19    35    1
    38    19    36    1
    39    19    37    1
    40    21    38    1
    41    21    39    1
    42    21    40    1
    43    23    41    1
    44    23    42    1
    45    23    43    1
    46    24    44    1
    47    24    45    1
    48    25    46    1
    49    25    47    1
    50    26    48    1
    51    26    49    1
    52    27    50    1
    53    27    51    1
    54    27    52    1
