LIA
  Mrv15b2303062313532D          

 30 32  0  0  0  0            999 V2000
   -1.3290    3.0379    0.0000 N   0  0  0  0  0  0  0  0  0  0  0  0
   -0.6145    2.6254    0.0000 C   0  0  0  0  0  0  0  0  0  0  0  0
   -0.6145    1.8004    0.0000 C   0  0  0  0  0  0  0  0  0  0  0  0
   -1.3290    1.3879    0.0000 C   0  0  0  0  0  0  0  0  0  0  0  0
   -2.0435    1.8004    0.0000 C   0  0  0  0  0  0  0  0  0  0  0  0
   -2.0435    2.6254    0.0000 C   0  0  0  0  0  0  0  0  0  0  0  0
   -1.3290    0.5629    0.0000 N   0  0  0  0  0  0  0  0  0  0  0  0
   -0.6145    0.1504    0.0000 C   0  0  0  0  0  0  0  0  0  0  0  0
   -0.6145   -0.6746    0.0000 N   0  0  0  0  0  0  0  0  0  0  0  0
    0.0999   -1.0871    0.0000 C   0  0  0  0  0  0  0  0  0  0  0  0
    0.8144   -0.6746    0.0000 C   0  0  0  0  0  0  0  0  0  0  0  0
    0.8144    0.1504    0.0000 C   0  0  0  0  0  0  0  0  0  0  0  0
    0.0999    0.5629    0.0000 N   0  0  0  0  0  0  0  0  0  0  0  0
    1.5289   -1.0871    0.0000 C   0  0  0  0  0  0  0  0  0  0  0  0
    2.2433   -0.6746    0.0000 O   0  0  0  0  0  0  0  0  0  0  0  0
    1.5289   -1.9121    0.0000 C   0  0  0  0  0  0  0  0  0  0  0  0
    2.2433   -2.3246    0.0000 C   0  0  0  0  0  0  0  0  0  0  0  0
    2.2433   -3.1496    0.0000 C   0  0  0  0  0  0  0  0  0  0  0  0
    1.5289   -3.5621    0.0000 C   0  0  0  0  0  0  0  0  0  0  0  0
    0.8144   -3.1496    0.0000 C   0  0  0  0  0  0  0  0  0  0  0  0
    0.8144   -2.3246    0.0000 C   0  0  0  0  0  0  0  0  0  0  0  0
    0.0999   -1.9121    0.0000 O   0  0  0  0  0  0  0  0  0  0  0  0
   -0.6145   -2.3246    0.0000 C   0  0  0  0  0  0  0  0  0  0  0  0
    2.9578   -1.9121    0.0000 F   0  0  0  0  0  0  0  0  0  0  0  0
    2.9578   -3.5621    0.0000 F   0  0  0  0  0  0  0  0  0  0  0  0
    1.5289    0.5629    0.0000 N   0  0  0  0  0  0  0  0  0  0  0  0
   -1.3290    3.8629    0.0000 S   0  0  0  0  0  0  0  0  0  0  0  0
   -1.3290    4.6879    0.0000 C   0  0  0  0  0  0  0  0  0  0  0  0
   -0.5040    3.8629    0.0000 O   0  0  0  0  0  0  0  0  0  0  0  0
   -2.1540    3.8629    0.0000 O   0  0  0  0  0  0  0  0  0  0  0  0
  1  2  1  0  0  0  0
  1  6  1  0  0  0  0
  1 27  1  0  0  0  0
  2  3  1  0  0  0  0
  3  4  1  0  0  0  0
  4  5  1  0  0  0  0
  4  7  1  0  0  0  0
  5  6  1  0  0  0  0
  7  8  1  0  0  0  0
  8  9  4  0  0  0  0
  8 13  4  0  0  0  0
  9 10  4  0  0  0  0
 10 11  4  0  0  0  0
 11 12  4  0  0  0  0
 11 14  1  0  0  0  0
 12 13  4  0  0  0  0
 12 26  1  0  0  0  0
 14 15  2  0  0  0  0
 14 16  1  0  0  0  0
 16 17  4  0  0  0  0
 16 21  4  0  0  0  0
 17 18  4  0  0  0  0
 17 24  1  0  0  0  0
 18 19  4  0  0  0  0
 18 25  1  0  0  0  0
 19 20  4  0  0  0  0
 20 21  4  0  0  0  0
 21 22  1  0  0  0  0
 22 23  1  0  0  0  0
 27 28  1  0  0  0  0
 27 29  2  0  0  0  0
 27 30  2  0  0  0  0
M  END
