LIA
  -OEChem-03262118093D

 51 53  0     0  0  0  0  0  0999 V2000
   -5.4070    0.0290    0.5630 N   0  0  0  0  0  0  0  0  0  0  0  0
   -5.2760    1.4430    0.1890 C   0  0  0  0  0  0  0  0  0  0  0  0
   -4.1480    1.5800   -0.8380 C   0  0  0  0  0  0  0  0  0  0  0  0
   -2.8690    0.9590   -0.2700 C   0  0  0  0  0  0  0  0  0  0  0  0
   -3.1000   -0.5300   -0.0010 C   0  0  0  0  0  0  0  0  0  0  0  0
   -4.2160   -0.6900    1.0360 C   0  0  0  0  0  0  0  0  0  0  0  0
   -1.7800    1.1170   -1.2370 N   0  0  0  0  0  0  0  0  0  0  0  0
   -0.4700    1.1260   -0.8040 C   0  0  0  0  0  0  0  0  0  0  0  0
   -0.2210    0.9910    0.4940 N   0  0  0  0  0  0  0  0  0  0  0  0
    1.0160    0.9940    0.9550 C   0  0  0  0  0  0  0  0  0  0  0  0
    2.0780    1.1440    0.0540 C   0  0  0  0  0  0  0  0  0  0  0  0
    1.7720    1.2910   -1.3170 C   0  0  0  0  0  0  0  0  0  0  0  0
    0.4990    1.2710   -1.6950 N   0  0  0  0  0  0  0  0  0  0  0  0
    3.4720    1.1530    0.5240 C   0  0  0  0  0  0  0  0  0  0  0  0
    3.9220    2.1400    1.0760 O   0  0  0  0  0  0  0  0  0  0  0  0
    4.3250   -0.0330    0.3250 C   0  0  0  0  0  0  0  0  0  0  0  0
    3.7820   -1.2090   -0.2060 C   0  0  0  0  0  0  0  0  0  0  0  0
    4.5890   -2.3170   -0.3880 C   0  0  0  0  0  0  0  0  0  0  0  0
    5.9330   -2.2650   -0.0510 C   0  0  0  0  0  0  0  0  0  0  0  0
    6.4790   -1.1070    0.4690 C   0  0  0  0  0  0  0  0  0  0  0  0
    5.6860    0.0130    0.6580 C   0  0  0  0  0  0  0  0  0  0  0  0
    6.2240    1.1500    1.1680 O   0  0  0  0  0  0  0  0  0  0  0  0
    7.6070    0.8810    1.4060 C   0  0  0  0  0  0  0  0  0  0  0  0
    2.4730   -1.2640   -0.5340 F   0  0  0  0  0  0  0  0  0  0  0  0
    4.0660   -3.4550   -0.8960 F   0  0  0  0  0  0  0  0  0  0  0  0
    2.7780    1.4420   -2.2480 N   0  0  0  0  0  0  0  0  0  0  0  0
   -6.8690   -0.7410    0.4540 S   0  0  0  0  0  0  0  0  0  0  0  0
   -6.8610   -1.4060   -1.2340 C   0  0  0  0  0  0  0  0  0  0  0  0
   -6.7550   -1.7730    1.4240 O   0  0  0  0  0  0  0  0  0  0  0  0
   -7.7980    0.3260    0.5920 O   0  0  0  0  0  0  0  0  0  0  0  0
   -5.0390    2.0350    1.0740 H   0  0  0  0  0  0  0  0  0  0  0  0
   -6.2120    1.7940   -0.2470 H   0  0  0  0  0  0  0  0  0  0  0  0
   -3.9760    2.6350   -1.0510 H   0  0  0  0  0  0  0  0  0  0  0  0
   -4.4270    1.0630   -1.7560 H   0  0  0  0  0  0  0  0  0  0  0  0
   -2.6050    1.4600    0.6610 H   0  0  0  0  0  0  0  0  0  0  0  0
   -3.3890   -1.0270   -0.9270 H   0  0  0  0  0  0  0  0  0  0  0  0
   -2.1820   -0.9770    0.3810 H   0  0  0  0  0  0  0  0  0  0  0  0
   -3.8920   -0.2730    1.9890 H   0  0  0  0  0  0  0  0  0  0  0  0
   -4.4520   -1.7470    1.1580 H   0  0  0  0  0  0  0  0  0  0  0  0
   -1.9790    1.2150   -2.1810 H   0  0  0  0  0  0  0  0  0  0  0  0
    1.2070    0.8830    2.0120 H   0  0  0  0  0  0  0  0  0  0  0  0
    6.5560   -3.1350   -0.1960 H   0  0  0  0  0  0  0  0  0  0  0  0
    7.5270   -1.0760    0.7280 H   0  0  0  0  0  0  0  0  0  0  0  0
    7.7010    0.0570    2.1140 H   0  0  0  0  0  0  0  0  0  0  0  0
    8.0920    0.6110    0.4680 H   0  0  0  0  0  0  0  0  0  0  0  0
    8.0840    1.7700    1.8190 H   0  0  0  0  0  0  0  0  0  0  0  0
    2.5570    1.6060   -3.1780 H   0  0  0  0  0  0  0  0  0  0  0  0
    3.7060    1.3830   -1.9730 H   0  0  0  0  0  0  0  0  0  0  0  0
   -6.0200   -2.0890   -1.3510 H   0  0  0  0  0  0  0  0  0  0  0  0
   -7.7930   -1.9420   -1.4180 H   0  0  0  0  0  0  0  0  0  0  0  0
   -6.7660   -0.5870   -1.9470 H   0  0  0  0  0  0  0  0  0  0  0  0
  1  2  1  0  0  0  0
  1  6  1  0  0  0  0
  1 27  1  0  0  0  0
  2  3  1  0  0  0  0
  2 31  1  0  0  0  0
  2 32  1  0  0  0  0
  3  4  1  0  0  0  0
  3 33  1  0  0  0  0
  3 34  1  0  0  0  0
  4  5  1  0  0  0  0
  4  7  1  0  0  0  0
  4 35  1  0  0  0  0
  5  6  1  0  0  0  0
  5 36  1  0  0  0  0
  5 37  1  0  0  0  0
  6 38  1  0  0  0  0
  6 39  1  0  0  0  0
  7  8  1  0  0  0  0
  7 40  1  0  0  0  0
  8  9  2  0  0  0  0
  8 13  1  0  0  0  0
  9 10  1  0  0  0  0
 10 11  2  0  0  0  0
 10 41  1  0  0  0  0
 11 12  1  0  0  0  0
 11 14  1  0  0  0  0
 12 13  2  0  0  0  0
 12 26  1  0  0  0  0
 14 15  2  0  0  0  0
 14 16  1  0  0  0  0
 16 17  1  0  0  0  0
 16 21  2  0  0  0  0
 17 18  2  0  0  0  0
 17 24  1  0  0  0  0
 18 19  1  0  0  0  0
 18 25  1  0  0  0  0
 19 20  2  0  0  0  0
 19 42  1  0  0  0  0
 20 21  1  0  0  0  0
 20 43  1  0  0  0  0
 21 22  1  0  0  0  0
 22 23  1  0  0  0  0
 23 44  1  0  0  0  0
 23 45  1  0  0  0  0
 23 46  1  0  0  0  0
 26 47  1  0  0  0  0
 26 48  1  0  0  0  0
 27 28  1  0  0  0  0
 27 29  2  0  0  0  0
 27 30  2  0  0  0  0
 28 49  1  0  0  0  0
 28 50  1  0  0  0  0
 28 51  1  0  0  0  0
M  END
> <OPENEYE_ISO_SMILES>
COc1ccc(c(c1C(=O)c2cnc(nc2N)NC3CCN(CC3)S(=O)(=O)C)F)F

> <OPENEYE_INCHI>
InChI=1S/C18H21F2N5O4S/c1-29-13-4-3-12(19)15(20)14(13)16(26)11-9-22-18(24-17(11)21)23-10-5-7-25(8-6-10)30(2,27)28/h3-4,9-10H,5-8H2,1-2H3,(H3,21,22,23,24)

> <OPENEYE_INCHIKEY>
JRNJNYBQQYBCLE-UHFFFAOYSA-N

> <FORMULA>
C18H21F2N5O4S

$$$$
