@<TRIPOS>MOLECULE
LIA
 51 53 0 0 0
SMALL
GASTEIGER

@<TRIPOS>ATOM
      1 N          -5.4070    0.0290    0.5630 N.3     1  LIG1       -0.1813
      2 C          -5.2760    1.4430    0.1890 C.3     1  LIG1        0.0218
      3 C          -4.1480    1.5800   -0.8380 C.3     1  LIG1       -0.0200
      4 C          -2.8690    0.9590   -0.2700 C.3     1  LIG1        0.0257
      5 C          -3.1000   -0.5300   -0.0010 C.3     1  LIG1       -0.0200
      6 C          -4.2160   -0.6900    1.0360 C.3     1  LIG1        0.0218
      7 N          -1.7800    1.1170   -1.2370 N.pl3   1  LIG1       -0.3105
      8 C          -0.4700    1.1260   -0.8040 C.ar    1  LIG1        0.2171
      9 N          -0.2210    0.9910    0.4940 N.ar    1  LIG1       -0.2221
     10 C           1.0160    0.9940    0.9550 C.ar    1  LIG1        0.0453
     11 C           2.0780    1.1440    0.0540 C.ar    1  LIG1        0.0801
     12 C           1.7720    1.2910   -1.3170 C.ar    1  LIG1        0.1322
     13 N           0.4990    1.2710   -1.6950 N.ar    1  LIG1       -0.1992
     14 C           3.4720    1.1530    0.5240 C.2     1  LIG1        0.2043
     15 O           3.9220    2.1400    1.0760 O.2     1  LIG1       -0.2863
     16 C           4.3250   -0.0330    0.3250 C.ar    1  LIG1        0.1019
     17 C           3.7820   -1.2090   -0.2060 C.ar    1  LIG1        0.1727
     18 C           4.5890   -2.3170   -0.3880 C.ar    1  LIG1        0.1593
     19 C           5.9330   -2.2650   -0.0510 C.ar    1  LIG1       -0.0201
     20 C           6.4790   -1.1070    0.4690 C.ar    1  LIG1       -0.0163
     21 C           5.6860    0.0130    0.6580 C.ar    1  LIG1        0.1339
     22 O           6.2240    1.1500    1.1680 O.3     1  LIG1       -0.4943
     23 C           7.6070    0.8810    1.4060 C.3     1  LIG1        0.0788
     24 F           2.4730   -1.2640   -0.5340 F       1  LIG1       -0.2016
     25 F           4.0660   -3.4550   -0.8960 F       1  LIG1       -0.2025
     26 N           2.7780    1.4420   -2.2480 N.pl3   1  LIG1       -0.3424
     27 S          -6.8690   -0.7410    0.4540 S.O2    1  LIG1        0.0290
     28 C          -6.8610   -1.4060   -1.2340 C.3     1  LIG1        0.0707
     29 O          -6.7550   -1.7730    1.4240 O.2     1  LIG1       -0.1583
     30 O          -7.7980    0.3260    0.5920 O.2     1  LIG1       -0.1583
     31 H          -5.0390    2.0350    1.0740 H       1  LIG1        0.0444
     32 H          -6.2120    1.7940   -0.2470 H       1  LIG1        0.0444
     33 H          -3.9760    2.6350   -1.0510 H       1  LIG1        0.0296
     34 H          -4.4270    1.0630   -1.7560 H       1  LIG1        0.0296
     35 H          -2.6050    1.4600    0.6610 H       1  LIG1        0.0499
     36 H          -3.3890   -1.0270   -0.9270 H       1  LIG1        0.0296
     37 H          -2.1820   -0.9770    0.3810 H       1  LIG1        0.0296
     38 H          -3.8920   -0.2730    1.9890 H       1  LIG1        0.0444
     39 H          -4.4520   -1.7470    1.1580 H       1  LIG1        0.0444
     40 H          -1.9790    1.2150   -2.1810 H       1  LIG1        0.1492
     41 H           1.2070    0.8830    2.0120 H       1  LIG1        0.0839
     42 H           6.5560   -3.1350   -0.1960 H       1  LIG1        0.0648
     43 H           7.5270   -1.0760    0.7280 H       1  LIG1        0.0655
     44 H           7.7010    0.0570    2.1140 H       1  LIG1        0.0660
     45 H           8.0920    0.6110    0.4680 H       1  LIG1        0.0660
     46 H           8.0840    1.7700    1.8190 H       1  LIG1        0.0660
     47 H           2.5570    1.6060   -3.1780 H       1  LIG1        0.1437
     48 H           3.7060    1.3830   -1.9730 H       1  LIG1        0.1437
     49 H          -6.0200   -2.0890   -1.3510 H       1  LIG1        0.0479
     50 H          -7.7930   -1.9420   -1.4180 H       1  LIG1        0.0479
     51 H          -6.7660   -0.5870   -1.9470 H       1  LIG1        0.0479
@<TRIPOS>BOND
     1     1     2    1
     2     1     6    1
     3     1    27    1
     4     2     3    1
     5     2    31    1
     6     2    32    1
     7     3     4    1
     8     3    33    1
     9     3    34    1
    10     4     5    1
    11     4     7    1
    12     4    35    1
    13     5     6    1
    14     5    36    1
    15     5    37    1
    16     6    38    1
    17     6    39    1
    18     7     8    1
    19     7    40    1
    20     8     9   ar
    21     8    13   ar
    22     9    10   ar
    23    10    11   ar
    24    10    41    1
    25    11    12   ar
    26    11    14    1
    27    12    13   ar
    28    12    26    1
    29    14    15    2
    30    14    16    1
    31    16    17   ar
    32    16    21   ar
    33    17    18   ar
    34    17    24    1
    35    18    19   ar
    36    18    25    1
    37    19    20   ar
    38    19    42    1
    39    20    21   ar
    40    20    43    1
    41    21    22    1
    42    22    23    1
    43    23    44    1
    44    23    45    1
    45    23    46    1
    46    26    47    1
    47    26    48    1
    48    27    28    1
    49    27    29    2
    50    27    30    2
    51    28    49    1
    52    28    50    1
    53    28    51    1
