@<TRIPOS>MOLECULE
IE6
 38 40 0 0 0
SMALL
GASTEIGER

@<TRIPOS>ATOM
      1 C           0.1600   -0.4500   -2.0960 C.ar    1  LIG1       -0.0450
      2 C          -1.1230    0.0550   -2.0810 C.ar    1  LIG1       -0.0275
      3 C           2.5750   -2.1670   -1.0810 C.ar    1  LIG1       -0.0347
      4 C           3.0670    1.2380    0.6130 C.ar    1  LIG1       -0.0315
      5 C           3.8710   -2.5750   -0.8270 C.ar    1  LIG1        0.0305
      6 C           3.1020   -0.0990    0.0250 C.ar    1  LIG1        0.0271
      7 C           2.1620   -0.9020   -0.6530 C.ar    1  LIG1        0.0009
      8 C           0.7900   -0.4230   -0.9020 C.ar    1  LIG1        0.0219
      9 C           4.2860    1.4700    1.1280 C.ar    1  LIG1        0.0152
     10 C           4.4000   -0.5920    0.2420 C.ar    1  LIG1        0.1389
     11 C          -1.5460    0.4920   -0.8900 C.ar    1  LIG1        0.1430
     12 C           4.7020    2.7330    1.8360 C.3     1  LIG1       -0.0244
     13 C          -3.8940   -0.8190    1.0770 C.3     1  LIG1        0.0298
     14 C          -5.1360   -1.6420    1.4260 C.3     1  LIG1        0.0073
     15 N           4.7290   -1.8040   -0.1910 N.ar    1  LIG1       -0.2375
     16 N           5.0940    0.3850    0.9140 N.ar    1  LIG1       -0.3432
     17 N          -4.1390   -0.0630   -0.1530 N.3     1  LIG1       -0.1883
     18 N          -4.8910   -2.4000    2.6600 N.3     1  LIG1       -0.3287
     19 O          -2.9940    1.9940    0.5890 O.2     1  LIG1       -0.1525
     20 O          -3.6110    1.6850   -1.8140 O.2     1  LIG1       -0.1525
     21 S          -0.2800    0.2720    0.3090 S.2     1  LIG1       -0.0685
     22 S          -3.1350    1.1850   -0.5720 S.O2    1  LIG1        0.0647
     23 H           0.6220   -0.8400   -2.9900 H       1  LIG1        0.0630
     24 H          -1.7400    0.0940   -2.9660 H       1  LIG1        0.0643
     25 H           1.8910   -2.8150   -1.6080 H       1  LIG1        0.0639
     26 H           4.1890   -3.5530   -1.1580 H       1  LIG1        0.0830
     27 H           2.2230    1.9120    0.6300 H       1  LIG1        0.0642
     28 H           4.5000    2.6360    2.9030 H       1  LIG1        0.0292
     29 H           5.7680    2.9020    1.6820 H       1  LIG1        0.0292
     30 H           4.1390    3.5760    1.4350 H       1  LIG1        0.0292
     31 H           6.0200    0.3160    1.1960 H       1  LIG1        0.1670
     32 H          -3.6760   -0.1280    1.8910 H       1  LIG1        0.0454
     33 H          -3.0450   -1.4870    0.9310 H       1  LIG1        0.0454
     34 H          -5.9850   -0.9740    1.5720 H       1  LIG1        0.0435
     35 H          -5.3540   -2.3330    0.6120 H       1  LIG1        0.0435
     36 H          -4.8890   -0.2930   -0.7230 H       1  LIG1        0.1481
     37 H          -5.6970   -2.9530    2.9110 H       1  LIG1        0.1183
     38 H          -4.0690   -2.9800    2.5710 H       1  LIG1        0.1183
@<TRIPOS>BOND
     1     1     2   ar
     2     1     8   ar
     3     2    11   ar
     4     3     5   ar
     5     3     7   ar
     6     4     6   ar
     7     4     9   ar
     8     5    15   ar
     9     6     7   ar
    10     6    10   ar
    11     7     8    1
    12     8    21   ar
    13     9    12    1
    14     9    16   ar
    15    10    15   ar
    16    10    16   ar
    17    11    21   ar
    18    11    22    1
    19    13    14    1
    20    13    17    1
    21    14    18    1
    22    17    22    1
    23    19    22    2
    24    20    22    2
    25     1    23    1
    26     2    24    1
    27     3    25    1
    28     5    26    1
    29     4    27    1
    30    12    28    1
    31    12    29    1
    32    12    30    1
    33    16    31    1
    34    13    32    1
    35    13    33    1
    36    14    34    1
    37    14    35    1
    38    17    36    1
    39    18    37    1
    40    18    38    1
