IE6
  -OEChem-02242319243D

 38 40  0     0  0  0  0  0  0999 V2000
    0.1600   -0.4500   -2.0960 C   0  0  0  0  0  0  0  0  0  0  0  0
   -1.1230    0.0550   -2.0810 C   0  0  0  0  0  0  0  0  0  0  0  0
    2.5750   -2.1670   -1.0810 C   0  0  0  0  0  0  0  0  0  0  0  0
    3.0670    1.2380    0.6130 C   0  0  0  0  0  0  0  0  0  0  0  0
    3.8710   -2.5750   -0.8270 C   0  0  0  0  0  0  0  0  0  0  0  0
    3.1020   -0.0990    0.0250 C   0  0  0  0  0  0  0  0  0  0  0  0
    2.1620   -0.9020   -0.6530 C   0  0  0  0  0  0  0  0  0  0  0  0
    0.7900   -0.4230   -0.9020 C   0  0  0  0  0  0  0  0  0  0  0  0
    4.2860    1.4700    1.1280 C   0  0  0  0  0  0  0  0  0  0  0  0
    4.4000   -0.5920    0.2420 C   0  0  0  0  0  0  0  0  0  0  0  0
   -1.5460    0.4920   -0.8900 C   0  0  0  0  0  0  0  0  0  0  0  0
    4.7020    2.7330    1.8360 C   0  0  0  0  0  0  0  0  0  0  0  0
   -3.8940   -0.8190    1.0770 C   0  0  0  0  0  0  0  0  0  0  0  0
   -5.1360   -1.6420    1.4260 C   0  0  0  0  0  0  0  0  0  0  0  0
    4.7290   -1.8040   -0.1910 N   0  0  0  0  0  0  0  0  0  0  0  0
    5.0940    0.3850    0.9140 N   0  0  0  0  0  0  0  0  0  0  0  0
   -4.1390   -0.0630   -0.1530 N   0  0  0  0  0  0  0  0  0  0  0  0
   -4.8910   -2.4000    2.6600 N   0  0  0  0  0  0  0  0  0  0  0  0
   -2.9940    1.9940    0.5890 O   0  0  0  0  0  0  0  0  0  0  0  0
   -3.6110    1.6850   -1.8140 O   0  0  0  0  0  0  0  0  0  0  0  0
   -0.2800    0.2720    0.3090 S   0  0  0  0  0  0  0  0  0  0  0  0
   -3.1350    1.1850   -0.5720 S   0  0  0  0  0  0  0  0  0  0  0  0
    0.6220   -0.8400   -2.9900 H   0  0  0  0  0  0  0  0  0  0  0  0
   -1.7400    0.0940   -2.9660 H   0  0  0  0  0  0  0  0  0  0  0  0
    1.8910   -2.8150   -1.6080 H   0  0  0  0  0  0  0  0  0  0  0  0
    4.1890   -3.5530   -1.1580 H   0  0  0  0  0  0  0  0  0  0  0  0
    2.2230    1.9120    0.6300 H   0  0  0  0  0  0  0  0  0  0  0  0
    4.5000    2.6360    2.9030 H   0  0  0  0  0  0  0  0  0  0  0  0
    5.7680    2.9020    1.6820 H   0  0  0  0  0  0  0  0  0  0  0  0
    4.1390    3.5760    1.4350 H   0  0  0  0  0  0  0  0  0  0  0  0
    6.0200    0.3160    1.1960 H   0  0  0  0  0  0  0  0  0  0  0  0
   -3.6760   -0.1280    1.8910 H   0  0  0  0  0  0  0  0  0  0  0  0
   -3.0450   -1.4870    0.9310 H   0  0  0  0  0  0  0  0  0  0  0  0
   -5.9850   -0.9740    1.5720 H   0  0  0  0  0  0  0  0  0  0  0  0
   -5.3540   -2.3330    0.6120 H   0  0  0  0  0  0  0  0  0  0  0  0
   -4.8890   -0.2930   -0.7230 H   0  0  0  0  0  0  0  0  0  0  0  0
   -5.6970   -2.9530    2.9110 H   0  0  0  0  0  0  0  0  0  0  0  0
   -4.0690   -2.9800    2.5710 H   0  0  0  0  0  0  0  0  0  0  0  0
  1  2  1  0  0  0  0
  1  8  2  0  0  0  0
  2 11  2  0  0  0  0
  3  5  1  0  0  0  0
  3  7  2  0  0  0  0
  4  6  1  0  0  0  0
  4  9  2  0  0  0  0
  5 15  2  0  0  0  0
  6  7  1  0  0  0  0
  6 10  2  0  0  0  0
  7  8  1  0  0  0  0
  8 21  1  0  0  0  0
  9 12  1  0  0  0  0
  9 16  1  0  0  0  0
 10 15  1  0  0  0  0
 10 16  1  0  0  0  0
 11 21  1  0  0  0  0
 11 22  1  0  0  0  0
 13 14  1  0  0  0  0
 13 17  1  0  0  0  0
 14 18  1  0  0  0  0
 17 22  1  0  0  0  0
 19 22  2  0  0  0  0
 20 22  2  0  0  0  0
  1 23  1  0  0  0  0
  2 24  1  0  0  0  0
  3 25  1  0  0  0  0
  5 26  1  0  0  0  0
  4 27  1  0  0  0  0
 12 28  1  0  0  0  0
 12 29  1  0  0  0  0
 12 30  1  0  0  0  0
 16 31  1  0  0  0  0
 13 32  1  0  0  0  0
 13 33  1  0  0  0  0
 14 34  1  0  0  0  0
 14 35  1  0  0  0  0
 17 36  1  0  0  0  0
 18 37  1  0  0  0  0
 18 38  1  0  0  0  0
M  END
> <OPENEYE_ISO_SMILES>
Cc1cc2c(ccnc2[nH]1)c3ccc(s3)S(=O)(=O)NCCN

> <OPENEYE_INCHI>
InChI=1S/C14H16N4O2S2/c1-9-8-11-10(4-6-16-14(11)18-9)12-2-3-13(21-12)22(19,20)17-7-5-15/h2-4,6,8,17H,5,7,15H2,1H3,(H,16,18)

> <OPENEYE_INCHIKEY>
AETIDEIXYCAWOW-UHFFFAOYSA-N

> <FORMULA>
C14H16N4O2S2

$$$$
