IE6
  Mrv15b2303062314162D          

 22 24  0  0  0  0            999 V2000
   -0.4707    0.0810    0.0000 C   0  0  0  0  0  0  0  0  0  0  0  0
   -0.2157    0.8656    0.0000 C   0  0  0  0  0  0  0  0  0  0  0  0
    0.9112   -1.6415    0.0000 C   0  0  0  0  0  0  0  0  0  0  0  0
   -1.3023   -1.3865    0.0000 C   0  0  0  0  0  0  0  0  0  0  0  0
    0.9112   -2.4665    0.0000 C   0  0  0  0  0  0  0  0  0  0  0  0
   -0.5177   -1.6415    0.0000 C   0  0  0  0  0  0  0  0  0  0  0  0
    0.1968   -1.2290    0.0000 C   0  0  0  0  0  0  0  0  0  0  0  0
    0.1968   -0.4040    0.0000 C   0  0  0  0  0  0  0  0  0  0  0  0
   -1.7872   -2.0540    0.0000 C   0  0  0  0  0  0  0  0  0  0  0  0
   -0.5177   -2.4665    0.0000 C   0  0  0  0  0  0  0  0  0  0  0  0
    0.6093    0.8656    0.0000 C   0  0  0  0  0  0  0  0  0  0  0  0
   -2.6122   -2.0540    0.0000 C   0  0  0  0  0  0  0  0  0  0  0  0
    1.2436    2.9541    0.0000 C   0  0  0  0  0  0  0  0  0  0  0  0
    1.7285    3.6216    0.0000 C   0  0  0  0  0  0  0  0  0  0  0  0
    0.1968   -2.8790    0.0000 N   0  0  0  0  0  0  0  0  0  0  0  0
   -1.3023   -2.7214    0.0000 N   0  0  0  0  0  0  0  0  0  0  0  0
    1.5791    2.2005    0.0000 N   0  0  0  0  0  0  0  0  0  0  0  0
    1.3929    4.3752    0.0000 N   0  0  0  0  0  0  0  0  0  0  0  0
    1.7616    1.0481    0.0000 O   0  0  0  0  0  0  0  0  0  0  0  0
    0.4268    2.0179    0.0000 O   0  0  0  0  0  0  0  0  0  0  0  0
    0.8642    0.0810    0.0000 S   0  0  0  0  0  0  0  0  0  0  0  0
    1.0942    1.5330    0.0000 S   0  0  0  0  0  0  0  0  0  0  0  0
  1  2  4  0  0  0  0
  1  8  4  0  0  0  0
  2 11  4  0  0  0  0
  3  5  4  0  0  0  0
  3  7  4  0  0  0  0
  4  6  4  0  0  0  0
  4  9  4  0  0  0  0
  5 15  4  0  0  0  0
  6  7  4  0  0  0  0
  6 10  4  0  0  0  0
  7  8  1  0  0  0  0
  8 21  4  0  0  0  0
  9 12  1  0  0  0  0
  9 16  4  0  0  0  0
 10 15  4  0  0  0  0
 10 16  4  0  0  0  0
 11 21  4  0  0  0  0
 11 22  1  0  0  0  0
 13 14  1  0  0  0  0
 13 17  1  0  0  0  0
 14 18  1  0  0  0  0
 17 22  1  0  0  0  0
 19 22  2  0  0  0  0
 20 22  2  0  0  0  0
M  STY  1   1 DAT
M  SAL   1  1  16
M  SDT   1 MRV_IMPLICIT_H                                        
M  SDD   1     0.0000    0.0000    DR    ALL  0       0  
M  SED   1 IMPL_H1
M  END
