@<TRIPOS>MOLECULE
U32
 34 35 0 0 0
SMALL
GASTEIGER

@<TRIPOS>ATOM
      1 O          -1.9280   -0.3170   -4.5720 O.2     1  LIG1       -0.1533
      2 O           0.3530   -1.0290   -5.3870 O.2     1  LIG1       -0.1533
      3 C          -1.2180   -0.4090    3.0370 C.ar    1  LIG1        0.0403
      4 C          -0.5780   -0.1460    4.2020 C.ar    1  LIG1        0.0136
      5 C          -1.0930   -0.2010    5.6170 C.3     1  LIG1       -0.0137
      6 C          -0.2780   -1.2190    6.4170 C.3     1  LIG1       -0.0581
      7 C          -0.9600    1.1790    6.2620 C.3     1  LIG1       -0.0581
      8 S           1.0490    0.2770    3.5970 S.2     1  LIG1       -0.0568
      9 C           0.7210    0.0750    1.9040 C.ar    1  LIG1        0.1626
     10 N          -0.5480   -0.2850    1.9080 N.ar    1  LIG1       -0.2328
     11 N          -0.3170    1.3340   -5.4180 N.3     1  LIG1       -0.2035
     12 C          -0.7380    0.3550   -2.0290 C.ar    1  LIG1       -0.0336
     13 C           0.1000   -0.0270   -3.0600 C.ar    1  LIG1        0.1051
     14 N           1.5740    0.2470    0.8240 N.pl3   1  LIG1       -0.2937
     15 C           1.4270   -0.3200   -2.8030 C.ar    1  LIG1       -0.0336
     16 C           1.9200   -0.2250   -1.5170 C.ar    1  LIG1       -0.0386
     17 C           1.0790    0.1550   -0.4790 C.ar    1  LIG1        0.0329
     18 C          -0.2520    0.4480   -0.7400 C.ar    1  LIG1       -0.0386
     19 S          -0.5230   -0.1440   -4.7040 S.O2    1  LIG1        0.0559
     20 H          -2.2570   -0.7040    3.0330 H       1  LIG1        0.0838
     21 H          -2.1410   -0.5000    5.6100 H       1  LIG1        0.0349
     22 H          -0.6510   -1.2590    7.4400 H       1  LIG1        0.0236
     23 H          -0.3720   -2.2030    5.9570 H       1  LIG1        0.0236
     24 H           0.7700   -0.9200    6.4230 H       1  LIG1        0.0236
     25 H           0.0870    1.4770    6.2690 H       1  LIG1        0.0236
     26 H          -1.5410    1.9040    5.6920 H       1  LIG1        0.0236
     27 H          -1.3330    1.1390    7.2860 H       1  LIG1        0.0236
     28 H          -0.6010    1.4740   -6.3350 H       1  LIG1        0.1442
     29 H           0.0870    2.0610   -4.9200 H       1  LIG1        0.1442
     30 H          -1.7740    0.5830   -2.2330 H       1  LIG1        0.0638
     31 H           2.5140    0.4330    0.9740 H       1  LIG1        0.1541
     32 H           2.0790   -0.6190   -3.6100 H       1  LIG1        0.0638
     33 H           2.9570   -0.4530   -1.3170 H       1  LIG1        0.0637
     34 H          -0.9080    0.7470    0.0640 H       1  LIG1        0.0637
@<TRIPOS>BOND
     1     1    19    2
     2     2    19    2
     3     3     4   ar
     4     3    10   ar
     5     3    20    1
     6     4     5    1
     7     4     8   ar
     8     5     6    1
     9     5     7    1
    10     5    21    1
    11     6    22    1
    12     6    23    1
    13     6    24    1
    14     7    25    1
    15     7    26    1
    16     7    27    1
    17     8     9   ar
    18     9    10   ar
    19     9    14    1
    20    11    19    1
    21    11    28    1
    22    11    29    1
    23    12    13   ar
    24    12    18   ar
    25    12    30    1
    26    13    15   ar
    27    13    19    1
    28    14    17    1
    29    14    31    1
    30    15    16   ar
    31    15    32    1
    32    16    17   ar
    33    16    33    1
    34    17    18   ar
    35    18    34    1
