U32
  Mrv15b2303062313592D          

 19 20  0  0  0  0            999 V2000
    2.6431    2.2988    0.0000 O   0  0  0  0  0  0  0  0  0  0  0  0
    1.5162    2.6008    0.0000 O   0  0  0  0  0  0  0  0  0  0  0  0
   -0.5167   -1.8582    0.0000 C   0  0  0  0  0  0  0  0  0  0  0  0
   -1.3417   -1.8582    0.0000 C   0  0  0  0  0  0  0  0  0  0  0  0
   -1.8266   -2.5257    0.0000 C   0  0  0  0  0  0  0  0  0  0  0  0
   -1.4911   -3.2794    0.0000 C   0  0  0  0  0  0  0  0  0  0  0  0
   -2.6471   -2.4394    0.0000 C   0  0  0  0  0  0  0  0  0  0  0  0
   -1.5966   -1.0736    0.0000 S   0  0  0  0  0  0  0  0  0  0  0  0
   -0.9292   -0.5887    0.0000 C   0  0  0  0  0  0  0  0  0  0  0  0
   -0.2618   -1.0736    0.0000 N   0  0  0  0  0  0  0  0  0  0  0  0
    2.3412    1.1718    0.0000 N   0  0  0  0  0  0  0  0  0  0  0  0
    0.4997    1.8863    0.0000 C   0  0  0  0  0  0  0  0  0  0  0  0
    1.2142    1.4738    0.0000 C   0  0  0  0  0  0  0  0  0  0  0  0
   -0.9292    0.2363    0.0000 N   0  0  0  0  0  0  0  0  0  0  0  0
    1.2142    0.6488    0.0000 C   0  0  0  0  0  0  0  0  0  0  0  0
    0.4997    0.2363    0.0000 C   0  0  0  0  0  0  0  0  0  0  0  0
   -0.2147    0.6488    0.0000 C   0  0  0  0  0  0  0  0  0  0  0  0
   -0.2147    1.4738    0.0000 C   0  0  0  0  0  0  0  0  0  0  0  0
    1.9287    1.8863    0.0000 S   0  0  0  0  0  0  0  0  0  0  0  0
  1 19  2  0  0  0  0
  2 19  2  0  0  0  0
  3  4  4  0  0  0  0
  3 10  4  0  0  0  0
  4  5  1  0  0  0  0
  4  8  4  0  0  0  0
  5  6  1  0  0  0  0
  5  7  1  0  0  0  0
  8  9  4  0  0  0  0
  9 10  4  0  0  0  0
  9 14  1  0  0  0  0
 11 19  1  0  0  0  0
 12 13  4  0  0  0  0
 12 18  4  0  0  0  0
 13 15  4  0  0  0  0
 13 19  1  0  0  0  0
 14 17  1  0  0  0  0
 15 16  4  0  0  0  0
 16 17  4  0  0  0  0
 17 18  4  0  0  0  0
M  END
