U32
  -OEChem-02242319253D

 34 35  0     0  0  0  0  0  0999 V2000
   -1.9280   -0.3170   -4.5720 O   0  0  0  0  0  0  0  0  0  0  0  0
    0.3530   -1.0290   -5.3870 O   0  0  0  0  0  0  0  0  0  0  0  0
   -1.2180   -0.4090    3.0370 C   0  0  0  0  0  0  0  0  0  0  0  0
   -0.5780   -0.1460    4.2020 C   0  0  0  0  0  0  0  0  0  0  0  0
   -1.0930   -0.2010    5.6170 C   0  0  0  0  0  0  0  0  0  0  0  0
   -0.2780   -1.2190    6.4170 C   0  0  0  0  0  0  0  0  0  0  0  0
   -0.9600    1.1790    6.2620 C   0  0  0  0  0  0  0  0  0  0  0  0
    1.0490    0.2770    3.5970 S   0  0  0  0  0  0  0  0  0  0  0  0
    0.7210    0.0750    1.9040 C   0  0  0  0  0  0  0  0  0  0  0  0
   -0.5480   -0.2850    1.9080 N   0  0  0  0  0  0  0  0  0  0  0  0
   -0.3170    1.3340   -5.4180 N   0  0  0  0  0  0  0  0  0  0  0  0
   -0.7380    0.3550   -2.0290 C   0  0  0  0  0  0  0  0  0  0  0  0
    0.1000   -0.0270   -3.0600 C   0  0  0  0  0  0  0  0  0  0  0  0
    1.5740    0.2470    0.8240 N   0  0  0  0  0  0  0  0  0  0  0  0
    1.4270   -0.3200   -2.8030 C   0  0  0  0  0  0  0  0  0  0  0  0
    1.9200   -0.2250   -1.5170 C   0  0  0  0  0  0  0  0  0  0  0  0
    1.0790    0.1550   -0.4790 C   0  0  0  0  0  0  0  0  0  0  0  0
   -0.2520    0.4480   -0.7400 C   0  0  0  0  0  0  0  0  0  0  0  0
   -0.5230   -0.1440   -4.7040 S   0  0  0  0  0  0  0  0  0  0  0  0
   -2.2570   -0.7040    3.0330 H   0  0  0  0  0  0  0  0  0  0  0  0
   -2.1410   -0.5000    5.6100 H   0  0  0  0  0  0  0  0  0  0  0  0
   -0.6510   -1.2590    7.4400 H   0  0  0  0  0  0  0  0  0  0  0  0
   -0.3720   -2.2030    5.9570 H   0  0  0  0  0  0  0  0  0  0  0  0
    0.7700   -0.9200    6.4230 H   0  0  0  0  0  0  0  0  0  0  0  0
    0.0870    1.4770    6.2690 H   0  0  0  0  0  0  0  0  0  0  0  0
   -1.5410    1.9040    5.6920 H   0  0  0  0  0  0  0  0  0  0  0  0
   -1.3330    1.1390    7.2860 H   0  0  0  0  0  0  0  0  0  0  0  0
   -0.6010    1.4740   -6.3350 H   0  0  0  0  0  0  0  0  0  0  0  0
    0.0870    2.0610   -4.9200 H   0  0  0  0  0  0  0  0  0  0  0  0
   -1.7740    0.5830   -2.2330 H   0  0  0  0  0  0  0  0  0  0  0  0
    2.5140    0.4330    0.9740 H   0  0  0  0  0  0  0  0  0  0  0  0
    2.0790   -0.6190   -3.6100 H   0  0  0  0  0  0  0  0  0  0  0  0
    2.9570   -0.4530   -1.3170 H   0  0  0  0  0  0  0  0  0  0  0  0
   -0.9080    0.7470    0.0640 H   0  0  0  0  0  0  0  0  0  0  0  0
  1 19  2  0  0  0  0
  2 19  2  0  0  0  0
  3  4  2  0  0  0  0
  3 10  1  0  0  0  0
  3 20  1  0  0  0  0
  4  5  1  0  0  0  0
  4  8  1  0  0  0  0
  5  6  1  0  0  0  0
  5  7  1  0  0  0  0
  5 21  1  0  0  0  0
  6 22  1  0  0  0  0
  6 23  1  0  0  0  0
  6 24  1  0  0  0  0
  7 25  1  0  0  0  0
  7 26  1  0  0  0  0
  7 27  1  0  0  0  0
  8  9  1  0  0  0  0
  9 10  2  0  0  0  0
  9 14  1  0  0  0  0
 11 19  1  0  0  0  0
 11 28  1  0  0  0  0
 11 29  1  0  0  0  0
 12 13  2  0  0  0  0
 12 18  1  0  0  0  0
 12 30  1  0  0  0  0
 13 15  1  0  0  0  0
 13 19  1  0  0  0  0
 14 17  1  0  0  0  0
 14 31  1  0  0  0  0
 15 16  2  0  0  0  0
 15 32  1  0  0  0  0
 16 17  1  0  0  0  0
 16 33  1  0  0  0  0
 17 18  2  0  0  0  0
 18 34  1  0  0  0  0
M  END
> <OPENEYE_ISO_SMILES>
CC(C)c1cnc(s1)Nc2ccc(cc2)S(=O)(=O)N

> <OPENEYE_INCHI>
InChI=1S/C12H15N3O2S2/c1-8(2)11-7-14-12(18-11)15-9-3-5-10(6-4-9)19(13,16)17/h3-8H,1-2H3,(H,14,15)(H2,13,16,17)

> <OPENEYE_INCHIKEY>
LPQUJAANWFHCJV-UHFFFAOYSA-N

> <FORMULA>
C12H15N3O2S2

$$$$
