@<TRIPOS>MOLECULE
BZT
 73 78 0 0 0
SMALL
GASTEIGER

@<TRIPOS>ATOM
      1 C          11.5570  -11.8350   23.2320 C.ar    1  UNL1        0.1180
      2 O          10.8180  -11.3370   24.2640 O.3     1  UNL1       -0.5067
      3 S          12.7150  -11.1010   19.2730 S.2     1  UNL1       -0.0878
      4 C          11.6700  -11.1720   21.9390 C.ar    1  UNL1       -0.0059
      5 C          12.4410  -11.6970   20.8600 C.ar    1  UNL1        0.0236
      6 C          13.1430  -12.9360   21.0320 C.ar    1  UNL1       -0.0065
      7 C          13.0450  -13.6000   22.3000 C.ar    1  UNL1       -0.0498
      8 C          12.2550  -13.0580   23.3930 C.ar    1  UNL1       -0.0195
      9 C          13.6860  -12.3490   18.7920 C.ar    1  UNL1        0.0240
     10 C          13.8430  -13.3180   19.8540 C.ar    1  UNL1       -0.0206
     11 C          14.2650  -12.4000   17.4000 C.ar    1  UNL1       -0.0108
     12 C          15.6770  -12.1620   17.0770 C.ar    1  UNL1       -0.0501
     13 C          16.1480  -12.2530   15.7530 C.ar    1  UNL1       -0.0193
     14 C          15.2770  -12.5780   14.6840 C.ar    1  UNL1        0.1206
     15 C          13.8680  -12.8080   15.0110 C.ar    1  UNL1       -0.0193
     16 C          13.3490  -12.7270   16.3470 C.ar    1  UNL1       -0.0501
     17 O          15.8900  -12.6460   13.3880 O.3     1  UNL1       -0.4907
     18 C          15.6590  -13.8750   12.5830 C.3     1  UNL1        0.1022
     19 C          16.9400  -14.7040   12.2560 C.3     1  UNL1        0.0331
     20 N          17.0300  -16.0630   12.9210 N.3     1  UNL1       -0.2991
     21 C          16.5310  -16.1110   14.2930 C.3     1  UNL1       -0.0010
     22 C          16.7930  -17.6120   14.6270 C.3     1  UNL1       -0.0390
     23 C          18.0810  -17.8930   13.8000 C.3     1  UNL1       -0.0390
     24 C          18.3990  -16.5630   13.1050 C.3     1  UNL1       -0.0010
     25 C          14.5120  -14.5920   19.5010 C.3     1  UNL1       -0.0007
     26 C          15.9040  -15.0140   20.2440 C.ar    1  UNL1       -0.0419
     27 C          16.0110  -16.1860   21.0520 C.ar    1  UNL1       -0.0579
     28 C          17.2340  -16.5190   21.6590 C.ar    1  UNL1       -0.0560
     29 C          18.4400  -15.7640   21.5260 C.ar    1  UNL1       -0.0194
     30 C          18.3330  -14.6060   20.7160 C.ar    1  UNL1        0.0225
     31 C          17.0830  -14.2230   20.0810 C.ar    1  UNL1       -0.0440
     32 BR         19.6780  -13.4460   20.3430 Br      1  UNL1       -0.0500
     33 C          19.7010  -16.2640   22.2530 C.3     1  UNL1        0.0251
     34 N          19.8830  -15.7590   23.6060 N.3     1  UNL1       -0.2981
     35 C          20.9390  -14.6750   23.8460 C.3     1  UNL1       -0.0007
     36 C          20.7540  -14.2220   25.3470 C.3     1  UNL1       -0.0390
     37 C          20.3110  -15.5840   25.9210 C.3     1  UNL1       -0.0390
     38 C          20.2790  -16.6340   24.7660 C.3     1  UNL1       -0.0007
     39 H          10.7742  -11.8270   25.1231 H       1  UNL1        0.2921
     40 H          11.1357  -10.2224   21.7882 H       1  UNL1        0.0665
     41 H          13.5837  -14.5474   22.4494 H       1  UNL1        0.0625
     42 H          12.1986  -13.5992   24.3490 H       1  UNL1        0.0654
     43 H          16.3801  -11.9079   17.8839 H       1  UNL1        0.0625
     44 H          17.2122  -12.0683   15.5449 H       1  UNL1        0.0654
     45 H          13.1742  -13.0546   14.1938 H       1  UNL1        0.0654
     46 H          12.2845  -12.9097   16.5556 H       1  UNL1        0.0625
     47 H          14.9674  -14.5229   13.1415 H       1  UNL1        0.0709
     48 H          15.2587  -13.5364   11.6160 H       1  UNL1        0.0709
     49 H          16.9747  -14.8574   11.1673 H       1  UNL1        0.0460
     50 H          17.7844  -14.1200   12.6510 H       1  UNL1        0.0460
     51 H          17.0971  -15.4407   14.9565 H       1  UNL1        0.0427
     52 H          15.4878  -15.7850   14.4172 H       1  UNL1        0.0427
     53 H          16.9661  -17.7600   15.7032 H       1  UNL1        0.0278
     54 H          15.9515  -18.2786   14.3872 H       1  UNL1        0.0278
     55 H          18.9080  -18.1923   14.4607 H       1  UNL1        0.0278
     56 H          17.9418  -18.7140   13.0812 H       1  UNL1        0.0278
     57 H          18.9982  -15.8974   13.7437 H       1  UNL1        0.0427
     58 H          18.9997  -16.6422   12.1869 H       1  UNL1        0.0427
     59 H          13.7888  -15.3967   19.6998 H       1  UNL1        0.0362
     60 H          14.8189  -14.4366   18.4562 H       1  UNL1        0.0362
     61 H          15.1325  -16.8312   21.2001 H       1  UNL1        0.0620
     62 H          17.2652  -17.4257   22.2810 H       1  UNL1        0.0621
     63 H          17.0439  -13.3116   19.4664 H       1  UNL1        0.0631
     64 H          19.6504  -17.3616   22.3044 H       1  UNL1        0.0476
     65 H          20.5555  -15.8877   21.6714 H       1  UNL1        0.0476
     66 H          21.9488  -15.0823   23.6902 H       1  UNL1        0.0427
     67 H          20.8199  -13.8315   23.1501 H       1  UNL1        0.0427
     68 H          21.6934  -13.8654   25.7947 H       1  UNL1        0.0278
     69 H          20.0706  -13.3773   25.5186 H       1  UNL1        0.0278
     70 H          21.0229  -15.9077   26.6946 H       1  UNL1        0.0278
     71 H          19.3103  -15.4919   26.3684 H       1  UNL1        0.0278
     72 H          21.2657  -17.0940   24.6087 H       1  UNL1        0.0427
     73 H          19.6094  -17.4885   24.9435 H       1  UNL1        0.0427
@<TRIPOS>BOND
     1     2     1    1
     2     4     1   ar
     3     5     3   ar
     4     5     4   ar
     5     6     5   ar
     6     7     6   ar
     7     8     7   ar
     8     8     1   ar
     9     9     3   ar
    10    10     9   ar
    11    10     6   ar
    12    11     9    1
    13    12    11   ar
    14    13    12   ar
    15    14    13   ar
    16    15    14   ar
    17    16    15   ar
    18    16    11   ar
    19    17    14    1
    20    18    17    1
    21    19    18    1
    22    20    19    1
    23    21    20    1
    24    22    21    1
    25    23    22    1
    26    24    23    1
    27    24    20    1
    28    25    10    1
    29    26    25    1
    30    27    26   ar
    31    28    27   ar
    32    29    28   ar
    33    30    29   ar
    34    31    26   ar
    35    31    30   ar
    36    32    30    1
    37    33    29    1
    38    34    33    1
    39    35    34    1
    40    36    35    1
    41    37    36    1
    42    38    37    1
    43    38    34    1
    44     2    39    1
    45     4    40    1
    46     7    41    1
    47     8    42    1
    48    12    43    1
    49    13    44    1
    50    15    45    1
    51    16    46    1
    52    18    47    1
    53    18    48    1
    54    19    49    1
    55    19    50    1
    56    21    51    1
    57    21    52    1
    58    22    53    1
    59    22    54    1
    60    23    55    1
    61    23    56    1
    62    24    57    1
    63    24    58    1
    64    25    59    1
    65    25    60    1
    66    27    61    1
    67    28    62    1
    68    31    63    1
    69    33    64    1
    70    33    65    1
    71    35    66    1
    72    35    67    1
    73    36    68    1
    74    36    69    1
    75    37    70    1
    76    37    71    1
    77    38    72    1
    78    38    73    1
