OLO
  -OEChem-02242319253D

 40 42  0     0  0  0  0  0  0999 V2000
    3.0780    0.0460    2.5660 N   0  0  0  0  0  0  0  0  0  0  0  0
    3.8320    0.1170    1.4310 C   0  0  0  0  0  0  0  0  0  0  0  0
    3.0600    0.0990    0.3840 N   0  0  0  0  0  0  0  0  0  0  0  0
    1.7650    0.0170    0.7790 C   0  0  0  0  0  0  0  0  0  0  0  0
    1.7630   -0.0230    2.1830 C   0  0  0  0  0  0  0  0  0  0  0  0
    0.5310   -0.0350    0.1090 C   0  0  0  0  0  0  0  0  0  0  0  0
   -0.5800   -0.1160    0.8310 N   0  0  0  0  0  0  0  0  0  0  0  0
   -0.5370   -0.1460    2.1560 C   0  0  0  0  0  0  0  0  0  0  0  0
    0.6020   -0.0990    2.8270 N   0  0  0  0  0  0  0  0  0  0  0  0
    3.5820    0.0390    3.9420 C   0  0  0  0  0  0  0  0  0  0  0  0
   -1.7250   -0.2310    2.8630 N   0  0  0  0  0  0  0  0  0  0  0  0
   -3.0010   -0.2850    2.1460 C   0  0  0  0  0  0  0  0  0  0  0  0
   -4.1490   -0.3750    3.1530 C   0  0  0  0  0  0  0  0  0  0  0  0
   -4.1280    0.7730    4.0030 O   0  0  0  0  0  0  0  0  0  0  0  0
    0.4760   -0.0040   -1.2730 N   0  0  0  0  0  0  0  0  0  0  0  0
   -0.8190   -0.0600   -1.9550 C   0  0  0  0  0  0  0  0  0  0  0  0
   -0.4370   -1.1840   -4.1590 C   0  0  0  0  0  0  0  0  0  0  0  0
   -0.2400   -1.1390   -5.5270 C   0  0  0  0  0  0  0  0  0  0  0  0
   -0.2080    0.0770   -6.1810 C   0  0  0  0  0  0  0  0  0  0  0  0
   -0.3750    1.2500   -5.4680 C   0  0  0  0  0  0  0  0  0  0  0  0
   -0.5770    1.2050   -4.1010 C   0  0  0  0  0  0  0  0  0  0  0  0
   -0.6030   -0.0110   -3.4460 C   0  0  0  0  0  0  0  0  0  0  0  0
    4.9100    0.1780    1.4050 H   0  0  0  0  0  0  0  0  0  0  0  0
    3.6490    1.0630    4.3090 H   0  0  0  0  0  0  0  0  0  0  0  0
    2.9020   -0.5290    4.5750 H   0  0  0  0  0  0  0  0  0  0  0  0
    4.5700   -0.4190    3.9650 H   0  0  0  0  0  0  0  0  0  0  0  0
   -1.7120   -0.2540    3.8320 H   0  0  0  0  0  0  0  0  0  0  0  0
   -3.1170    0.6140    1.5420 H   0  0  0  0  0  0  0  0  0  0  0  0
   -3.0170   -1.1610    1.4980 H   0  0  0  0  0  0  0  0  0  0  0  0
   -5.0990   -0.4150    2.6190 H   0  0  0  0  0  0  0  0  0  0  0  0
   -4.0330   -1.2750    3.7570 H   0  0  0  0  0  0  0  0  0  0  0  0
   -4.8660    0.6770    4.6210 H   0  0  0  0  0  0  0  0  0  0  0  0
    1.2940    0.0540   -1.7900 H   0  0  0  0  0  0  0  0  0  0  0  0
   -1.3280   -0.9870   -1.6920 H   0  0  0  0  0  0  0  0  0  0  0  0
   -1.4280    0.7890   -1.6480 H   0  0  0  0  0  0  0  0  0  0  0  0
   -0.4620   -2.1350   -3.6480 H   0  0  0  0  0  0  0  0  0  0  0  0
   -0.1090   -2.0550   -6.0840 H   0  0  0  0  0  0  0  0  0  0  0  0
   -0.0530    0.1120   -7.2490 H   0  0  0  0  0  0  0  0  0  0  0  0
   -0.3500    2.2010   -5.9790 H   0  0  0  0  0  0  0  0  0  0  0  0
   -0.7070    2.1210   -3.5440 H   0  0  0  0  0  0  0  0  0  0  0  0
  1  2  1  0  0  0  0
  1  5  1  0  0  0  0
  1 10  1  0  0  0  0
  2  3  2  0  0  0  0
  2 23  1  0  0  0  0
  3  4  1  0  0  0  0
  4  5  2  0  0  0  0
  4  6  1  0  0  0  0
  5  9  1  0  0  0  0
  6  7  2  0  0  0  0
  6 15  1  0  0  0  0
  7  8  1  0  0  0  0
  8  9  2  0  0  0  0
  8 11  1  0  0  0  0
 10 24  1  0  0  0  0
 10 25  1  0  0  0  0
 10 26  1  0  0  0  0
 11 12  1  0  0  0  0
 11 27  1  0  0  0  0
 12 13  1  0  0  0  0
 12 28  1  0  0  0  0
 12 29  1  0  0  0  0
 13 14  1  0  0  0  0
 13 30  1  0  0  0  0
 13 31  1  0  0  0  0
 14 32  1  0  0  0  0
 15 16  1  0  0  0  0
 15 33  1  0  0  0  0
 16 22  1  0  0  0  0
 16 34  1  0  0  0  0
 16 35  1  0  0  0  0
 17 18  2  0  0  0  0
 17 22  1  0  0  0  0
 17 36  1  0  0  0  0
 18 19  1  0  0  0  0
 18 37  1  0  0  0  0
 19 20  2  0  0  0  0
 19 38  1  0  0  0  0
 20 21  1  0  0  0  0
 20 39  1  0  0  0  0
 21 22  2  0  0  0  0
 21 40  1  0  0  0  0
M  END
> <OPENEYE_ISO_SMILES>
Cn1cnc2c1nc(nc2NCc3ccccc3)NCCO

> <OPENEYE_INCHI>
InChI=1S/C15H18N6O/c1-21-10-18-12-13(17-9-11-5-3-2-4-6-11)19-15(16-7-8-22)20-14(12)21/h2-6,10,22H,7-9H2,1H3,(H2,16,17,19,20)

> <OPENEYE_INCHIKEY>
GTVPOLSIJWJJNY-UHFFFAOYSA-N

> <FORMULA>
C15H18N6O

$$$$
