@<TRIPOS>MOLECULE
OLO
 40 42 0 0 0
SMALL
GASTEIGER

@<TRIPOS>ATOM
      1 N           3.0780    0.0460    2.5660 N.ar    1  LIG1       -0.3180
      2 C           3.8320    0.1170    1.4310 C.ar    1  LIG1        0.0981
      3 N           3.0600    0.0990    0.3840 N.ar    1  LIG1       -0.2306
      4 C           1.7650    0.0170    0.7790 C.ar    1  LIG1        0.1475
      5 C           1.7630   -0.0230    2.1830 C.ar    1  LIG1        0.1670
      6 C           0.5310   -0.0350    0.1090 C.ar    1  LIG1        0.1519
      7 N          -0.5800   -0.1160    0.8310 N.ar    1  LIG1       -0.1974
      8 C          -0.5370   -0.1460    2.1560 C.ar    1  LIG1        0.2189
      9 N           0.6020   -0.0990    2.8270 N.ar    1  LIG1       -0.1948
     10 C           3.5820    0.0390    3.9420 C.3     1  LIG1        0.0146
     11 N          -1.7250   -0.2310    2.8630 N.pl3   1  LIG1       -0.3112
     12 C          -3.0010   -0.2850    2.1460 C.3     1  LIG1        0.0350
     13 C          -4.1490   -0.3750    3.1530 C.3     1  LIG1        0.0597
     14 O          -4.1280    0.7730    4.0030 O.3     1  LIG1       -0.3935
     15 N           0.4760   -0.0040   -1.2730 N.pl3   1  LIG1       -0.3231
     16 C          -0.8190   -0.0600   -1.9550 C.3     1  LIG1        0.0357
     17 C          -0.4370   -1.1840   -4.1590 C.ar    1  LIG1       -0.0571
     18 C          -0.2400   -1.1390   -5.5270 C.ar    1  LIG1       -0.0615
     19 C          -0.2080    0.0770   -6.1810 C.ar    1  LIG1       -0.0617
     20 C          -0.3750    1.2500   -5.4680 C.ar    1  LIG1       -0.0615
     21 C          -0.5770    1.2050   -4.1010 C.ar    1  LIG1       -0.0571
     22 C          -0.6030   -0.0110   -3.4460 C.ar    1  LIG1       -0.0304
     23 H           4.9100    0.1780    1.4050 H       1  LIG1        0.1029
     24 H           3.6490    1.0630    4.3090 H       1  LIG1        0.0457
     25 H           2.9020   -0.5290    4.5750 H       1  LIG1        0.0457
     26 H           4.5700   -0.4190    3.9650 H       1  LIG1        0.0457
     27 H          -1.7120   -0.2540    3.8320 H       1  LIG1        0.1490
     28 H          -3.1170    0.6140    1.5420 H       1  LIG1        0.0484
     29 H          -3.0170   -1.1610    1.4980 H       1  LIG1        0.0484
     30 H          -5.0990   -0.4150    2.6190 H       1  LIG1        0.0573
     31 H          -4.0330   -1.2750    3.7570 H       1  LIG1        0.0573
     32 H          -4.8660    0.6770    4.6210 H       1  LIG1        0.2095
     33 H           1.2940    0.0540   -1.7900 H       1  LIG1        0.1479
     34 H          -1.3280   -0.9870   -1.6920 H       1  LIG1        0.0511
     35 H          -1.4280    0.7890   -1.6480 H       1  LIG1        0.0511
     36 H          -0.4620   -2.1350   -3.6480 H       1  LIG1        0.0621
     37 H          -0.1090   -2.0550   -6.0840 H       1  LIG1        0.0618
     38 H          -0.0530    0.1120   -7.2490 H       1  LIG1        0.0618
     39 H          -0.3500    2.2010   -5.9790 H       1  LIG1        0.0618
     40 H          -0.7070    2.1210   -3.5440 H       1  LIG1        0.0621
@<TRIPOS>BOND
     1     1     2   ar
     2     1     5   ar
     3     1    10    1
     4     2     3   ar
     5     2    23    1
     6     3     4   ar
     7     4     5   ar
     8     4     6   ar
     9     5     9   ar
    10     6     7   ar
    11     6    15    1
    12     7     8   ar
    13     8     9   ar
    14     8    11    1
    15    10    24    1
    16    10    25    1
    17    10    26    1
    18    11    12    1
    19    11    27    1
    20    12    13    1
    21    12    28    1
    22    12    29    1
    23    13    14    1
    24    13    30    1
    25    13    31    1
    26    14    32    1
    27    15    16    1
    28    15    33    1
    29    16    22    1
    30    16    34    1
    31    16    35    1
    32    17    18   ar
    33    17    22   ar
    34    17    36    1
    35    18    19   ar
    36    18    37    1
    37    19    20   ar
    38    19    38    1
    39    20    21   ar
    40    20    39    1
    41    21    22   ar
    42    21    40    1
