OLO
  Mrv15b2303062314072D          

 22 24  0  0  0  0            999 V2000
   -1.7131    1.4431    0.0000 N   0  0  0  0  0  0  0  0  0  0  0  0
   -2.1980    0.7757    0.0000 C   0  0  0  0  0  0  0  0  0  0  0  0
   -1.7131    0.1082    0.0000 N   0  0  0  0  0  0  0  0  0  0  0  0
   -0.9285    0.3632    0.0000 C   0  0  0  0  0  0  0  0  0  0  0  0
   -0.9285    1.1882    0.0000 C   0  0  0  0  0  0  0  0  0  0  0  0
   -0.2140   -0.0493    0.0000 C   0  0  0  0  0  0  0  0  0  0  0  0
    0.5005    0.3632    0.0000 N   0  0  0  0  0  0  0  0  0  0  0  0
    0.5005    1.1882    0.0000 C   0  0  0  0  0  0  0  0  0  0  0  0
   -0.2140    1.6007    0.0000 N   0  0  0  0  0  0  0  0  0  0  0  0
   -1.9680    2.2277    0.0000 C   0  0  0  0  0  0  0  0  0  0  0  0
    1.2149    1.6007    0.0000 N   0  0  0  0  0  0  0  0  0  0  0  0
    1.2149    2.4257    0.0000 C   0  0  0  0  0  0  0  0  0  0  0  0
    1.9294    2.8382    0.0000 C   0  0  0  0  0  0  0  0  0  0  0  0
    1.9294    3.6632    0.0000 O   0  0  0  0  0  0  0  0  0  0  0  0
   -0.2140   -0.8743    0.0000 N   0  0  0  0  0  0  0  0  0  0  0  0
    0.5005   -1.2868    0.0000 C   0  0  0  0  0  0  0  0  0  0  0  0
    1.2149   -2.5243    0.0000 C   0  0  0  0  0  0  0  0  0  0  0  0
    1.2149   -3.3493    0.0000 C   0  0  0  0  0  0  0  0  0  0  0  0
    0.5005   -3.7618    0.0000 C   0  0  0  0  0  0  0  0  0  0  0  0
   -0.2140   -3.3493    0.0000 C   0  0  0  0  0  0  0  0  0  0  0  0
   -0.2140   -2.5243    0.0000 C   0  0  0  0  0  0  0  0  0  0  0  0
    0.5005   -2.1118    0.0000 C   0  0  0  0  0  0  0  0  0  0  0  0
  1  2  4  0  0  0  0
  1  5  4  0  0  0  0
  1 10  1  0  0  0  0
  2  3  4  0  0  0  0
  3  4  4  0  0  0  0
  4  5  4  0  0  0  0
  4  6  4  0  0  0  0
  5  9  4  0  0  0  0
  6  7  4  0  0  0  0
  6 15  1  0  0  0  0
  7  8  4  0  0  0  0
  8  9  4  0  0  0  0
  8 11  1  0  0  0  0
 11 12  1  0  0  0  0
 12 13  1  0  0  0  0
 13 14  1  0  0  0  0
 15 16  1  0  0  0  0
 16 22  1  0  0  0  0
 17 18  4  0  0  0  0
 17 22  4  0  0  0  0
 18 19  4  0  0  0  0
 19 20  4  0  0  0  0
 20 21  4  0  0  0  0
 21 22  4  0  0  0  0
M  END
