@<TRIPOS>MOLECULE
338
 32 35 0 0 0
SMALL
GASTEIGER

@<TRIPOS>ATOM
      1 C          29.5710   38.8960   36.3310 C.ar    1  UNL1       -0.0603
      2 C          30.9550   35.2340   38.2220 C.ar    1  UNL1       -0.0531
      3 C          30.7570   38.2310   35.8840 C.ar    1  UNL1       -0.0505
      4 C          32.1470   34.5980   37.7400 C.ar    1  UNL1       -0.0577
      5 C          28.8130   38.3620   37.4120 C.ar    1  UNL1       -0.0489
      6 C          30.4350   36.4510   37.6470 C.ar    1  UNL1       -0.0022
      7 C          27.2890   34.7890   42.0230 C.ar    1  UNL1       -0.0291
      8 C          31.2140   37.0300   36.5040 C.ar    1  UNL1        0.0243
      9 C          32.8710   35.1700   36.6440 C.ar    1  UNL1       -0.0196
     10 C          26.0010   34.8660   42.6420 C.ar    1  UNL1       -0.0179
     11 C          29.1900   37.1530   38.1060 C.ar    1  UNL1        0.0447
     12 C          25.2710   36.6180   41.0040 C.ar    1  UNL1        0.0243
     13 C          27.5340   35.6360   40.8970 C.ar    1  UNL1        0.1101
     14 C          26.5590   36.5230   40.4000 C.ar    1  UNL1        0.1592
     15 C          32.4200   36.3770   36.0200 C.ar    1  UNL1        0.1246
     16 C          25.0060   35.7720   42.1340 C.ar    1  UNL1        0.1205
     17 C          28.3230   36.7300   39.1550 C.ar    1  UNL1        0.2290
     18 O          23.7810   35.8180   42.7520 O.3     1  UNL1       -0.5066
     19 O          33.1620   36.8770   34.9570 O.3     1  UNL1       -0.5062
     20 N          28.6680   35.7640   40.1110 N.ar    1  UNL1       -0.2089
     21 O          27.0450   37.1960   39.3300 O.2     1  UNL1       -0.4351
     22 H          29.2639   39.7658   35.8682 H       1  UNL1        0.0618
     23 H          30.4489   34.8038   39.0119 H       1  UNL1        0.0624
     24 H          31.2928   38.6286   35.0967 H       1  UNL1        0.0625
     25 H          32.4830   33.7284   38.1827 H       1  UNL1        0.0619
     26 H          27.9597   38.8592   37.7115 H       1  UNL1        0.0625
     27 H          28.0146   34.1457   42.3763 H       1  UNL1        0.0641
     28 H          33.7269   34.7069   36.3006 H       1  UNL1        0.0654
     29 H          25.7853   34.2693   43.4559 H       1  UNL1        0.0655
     30 H          24.5566   37.2695   40.6431 H       1  UNL1        0.0692
     31 H          23.1189   36.4013   42.4368 H       1  UNL1        0.2921
     32 H          32.8929   37.6651   34.5275 H       1  UNL1        0.2922
@<TRIPOS>BOND
     1     3     1   ar
     2     4     2   ar
     3     5     1   ar
     4     6     2   ar
     5     8     6   ar
     6     8     3   ar
     7     9     4   ar
     8    10     7   ar
     9    11     6   ar
    10    11     5   ar
    11    13     7   ar
    12    14    12   ar
    13    14    13   ar
    14    15     8   ar
    15    15     9   ar
    16    16    12   ar
    17    16    10   ar
    18    17    11    1
    19    18    16    1
    20    19    15    1
    21    20    17   ar
    22    20    13   ar
    23    21    14   ar
    24    21    17   ar
    25     1    22    1
    26     2    23    1
    27     3    24    1
    28     4    25    1
    29     5    26    1
    30     7    27    1
    31     9    28    1
    32    10    29    1
    33    12    30    1
    34    18    31    1
    35    19    32    1
