338
 OpenBabel04182214563D

 32 35  0  0  0  0  0  0  0  0999 V2000
   29.5710   38.8960   36.3310 C   0  0  0  0  0  0  0  0  0  0  0  0
   30.9550   35.2340   38.2220 C   0  0  0  0  0  0  0  0  0  0  0  0
   30.7570   38.2310   35.8840 C   0  0  0  0  0  0  0  0  0  0  0  0
   32.1470   34.5980   37.7400 C   0  0  0  0  0  0  0  0  0  0  0  0
   28.8130   38.3620   37.4120 C   0  0  0  0  0  0  0  0  0  0  0  0
   30.4350   36.4510   37.6470 C   0  0  0  0  0  0  0  0  0  0  0  0
   27.2890   34.7890   42.0230 C   0  0  0  0  0  0  0  0  0  0  0  0
   31.2140   37.0300   36.5040 C   0  0  0  0  0  0  0  0  0  0  0  0
   32.8710   35.1700   36.6440 C   0  0  0  0  0  0  0  0  0  0  0  0
   26.0010   34.8660   42.6420 C   0  0  0  0  0  0  0  0  0  0  0  0
   29.1900   37.1530   38.1060 C   0  0  0  0  0  0  0  0  0  0  0  0
   25.2710   36.6180   41.0040 C   0  0  0  0  0  0  0  0  0  0  0  0
   27.5340   35.6360   40.8970 C   0  0  0  0  0  0  0  0  0  0  0  0
   26.5590   36.5230   40.4000 C   0  0  0  0  0  0  0  0  0  0  0  0
   32.4200   36.3770   36.0200 C   0  0  0  0  0  0  0  0  0  0  0  0
   25.0060   35.7720   42.1340 C   0  0  0  0  0  0  0  0  0  0  0  0
   28.3230   36.7300   39.1550 C   0  0  0  0  0  0  0  0  0  0  0  0
   23.7810   35.8180   42.7520 O   0  0  0  0  0  0  0  0  0  0  0  0
   33.1620   36.8770   34.9570 O   0  0  0  0  0  0  0  0  0  0  0  0
   28.6680   35.7640   40.1110 N   0  0  0  0  0  0  0  0  0  0  0  0
   27.0450   37.1960   39.3300 O   0  0  0  0  0  0  0  0  0  0  0  0
   29.2639   39.7658   35.8682 H   0  0  0  0  0  0  0  0  0  0  0  0
   30.4489   34.8038   39.0119 H   0  0  0  0  0  0  0  0  0  0  0  0
   31.2928   38.6286   35.0967 H   0  0  0  0  0  0  0  0  0  0  0  0
   32.4830   33.7284   38.1827 H   0  0  0  0  0  0  0  0  0  0  0  0
   27.9597   38.8592   37.7115 H   0  0  0  0  0  0  0  0  0  0  0  0
   28.0146   34.1457   42.3763 H   0  0  0  0  0  0  0  0  0  0  0  0
   33.7269   34.7069   36.3006 H   0  0  0  0  0  0  0  0  0  0  0  0
   25.7853   34.2693   43.4559 H   0  0  0  0  0  0  0  0  0  0  0  0
   24.5566   37.2695   40.6431 H   0  0  0  0  0  0  0  0  0  0  0  0
   23.1189   36.4013   42.4368 H   0  0  0  0  0  0  0  0  0  0  0  0
   32.8929   37.6651   34.5275 H   0  0  0  0  0  0  0  0  0  0  0  0
  1 22  1  0  0  0  0
  2 23  1  0  0  0  0
  3  1  2  0  0  0  0
  3 24  1  0  0  0  0
  4  2  2  0  0  0  0
  4 25  1  0  0  0  0
  5  1  1  0  0  0  0
  5 26  1  0  0  0  0
  6  2  1  0  0  0  0
  7 27  1  0  0  0  0
  8  6  2  0  0  0  0
  8  3  1  0  0  0  0
  9  4  1  0  0  0  0
  9 28  1  0  0  0  0
 10  7  2  0  0  0  0
 10 29  1  0  0  0  0
 11  6  1  0  0  0  0
 11  5  2  0  0  0  0
 12 30  1  0  0  0  0
 13  7  1  0  0  0  0
 14 12  1  0  0  0  0
 14 13  2  0  0  0  0
 15  8  1  0  0  0  0
 15  9  2  0  0  0  0
 16 12  2  0  0  0  0
 16 10  1  0  0  0  0
 17 11  1  0  0  0  0
 18 16  1  0  0  0  0
 18 31  1  0  0  0  0
 19 15  1  0  0  0  0
 19 32  1  0  0  0  0
 20 17  2  0  0  0  0
 20 13  1  0  0  0  0
 21 14  1  0  0  0  0
 21 17  1  0  0  0  0
M  END
$$$$
