@<TRIPOS>MOLECULE
UC3
 38 38 0 0 0
SMALL
GASTEIGER

@<TRIPOS>ATOM
      1 CL          0.8880  -39.5730   21.8870 Cl      1  UNL1       -0.0827
      2 C           2.8820  -38.3270   17.9510 C.ar    1  UNL1        0.0348
      3 C           2.1020  -37.3990   18.6790 C.ar    1  UNL1       -0.0251
      4 C           1.4640  -37.7620   19.8740 C.ar    1  UNL1        0.0790
      5 C           1.6190  -39.0840   20.3570 C.ar    1  UNL1        0.0550
      6 C           2.3830  -40.0220   19.6390 C.ar    1  UNL1       -0.0408
      7 C           3.0140  -39.6450   18.4460 C.ar    1  UNL1       -0.0390
      8 N           3.5340  -37.9400   16.7110 N.am    1  UNL1       -0.2794
      9 C           4.9050  -37.9810   16.3550 C.2     1  UNL1        0.2326
     10 S           5.5650  -39.3680   15.6380 S.2     1  UNL1        0.0061
     11 O           5.5510  -36.8000   16.6710 O.3     1  UNL1       -0.4711
     12 C           6.7590  -36.8910   17.4750 C.3     1  UNL1        0.0965
     13 C           7.4170  -35.4890   17.5410 C.3     1  UNL1       -0.0280
     14 C           6.3850  -37.4180   18.8850 C.3     1  UNL1       -0.0280
     15 C           0.6320  -36.6830   20.5940 C.2     1  UNL1        0.3409
     16 O           0.5590  -36.5550   21.8040 O.2     1  UNL1       -0.2449
     17 O          -0.0330  -35.8610   19.7020 O.3     1  UNL1       -0.4584
     18 C          -1.3810  -36.2950   19.4300 C.3     1  UNL1        0.0978
     19 C          -2.3220  -35.5710   20.4080 C.3     1  UNL1       -0.0280
     20 C          -1.7160  -35.9630   17.9680 C.3     1  UNL1       -0.0280
     21 H           1.9935  -36.3719   18.3005 H       1  UNL1        0.0645
     22 H           2.4850  -41.0511   20.0140 H       1  UNL1        0.0633
     23 H           3.6161  -40.3793   17.8908 H       1  UNL1        0.0636
     24 H           2.9036  -37.5813   15.9797 H       1  UNL1        0.1555
     25 H           7.4816  -37.5910   17.0301 H       1  UNL1        0.0728
     26 H           7.5539  -35.1973   18.5928 H       1  UNL1        0.0265
     27 H           8.3951  -35.5190   17.0385 H       1  UNL1        0.0265
     28 H           6.7690  -34.7558   17.0385 H       1  UNL1        0.0265
     29 H           6.8422  -36.7737   19.6504 H       1  UNL1        0.0265
     30 H           5.2913  -37.4072   19.0023 H       1  UNL1        0.0265
     31 H           6.7562  -38.4468   19.0023 H       1  UNL1        0.0265
     32 H          -1.4963  -37.3800   19.5698 H       1  UNL1        0.0728
     33 H          -2.0237  -35.8005   21.4416 H       1  UNL1        0.0265
     34 H          -2.2599  -34.4855   20.2409 H       1  UNL1        0.0265
     35 H          -3.3553  -35.9092   20.2409 H       1  UNL1        0.0265
     36 H          -2.4970  -35.1890   17.9375 H       1  UNL1        0.0265
     37 H          -0.8132  -35.5932   17.4598 H       1  UNL1        0.0265
     38 H          -2.0777  -36.8691   17.4598 H       1  UNL1        0.0265
@<TRIPOS>BOND
     1     3     2   ar
     2     4     3   ar
     3     5     1    1
     4     5     4   ar
     5     6     5   ar
     6     7     6   ar
     7     7     2   ar
     8     8     2    1
     9     9     8    1
    10    10     9    2
    11    11     9    1
    12    12    11    1
    13    13    12    1
    14    14    12    1
    15    15     4    1
    16    16    15    2
    17    17    15    1
    18    18    17    1
    19    19    18    1
    20    20    18    1
    21     3    21    1
    22     6    22    1
    23     7    23    1
    24     8    24    1
    25    12    25    1
    26    13    26    1
    27    13    27    1
    28    13    28    1
    29    14    29    1
    30    14    30    1
    31    14    31    1
    32    18    32    1
    33    19    33    1
    34    19    34    1
    35    19    35    1
    36    20    36    1
    37    20    37    1
    38    20    38    1
