@<TRIPOS>MOLECULE
VDN
 66 69 0 0 0
SMALL
GASTEIGER

@<TRIPOS>ATOM
      1 C         -24.0570   28.4530   72.1460 C.ar    1  UNL1        0.1312
      2 C         -24.8550   27.7270   73.0330 C.ar    1  UNL1       -0.0174
      3 C         -25.1370   26.3910   72.7550 C.ar    1  UNL1       -0.0319
      4 C         -24.6300   25.7740   71.6020 C.ar    1  UNL1        0.1064
      5 C         -23.8400   26.5130   70.7220 C.ar    1  UNL1       -0.0211
      6 C         -23.5280   27.8280   71.0190 C.ar    1  UNL1        0.0621
      7 C         -22.7490   28.6970   70.1000 C.ar    1  UNL1        0.1606
      8 N         -21.3360   28.4620   69.9090 N.ar    1  UNL1       -0.1879
      9 C         -20.6270   29.0110   68.9240 C.ar    1  UNL1        0.2994
     10 C         -21.4260   29.7170   67.9050 C.ar    1  UNL1        0.1522
     11 O         -19.4130   28.8770   68.8820 O.2     1  UNL1       -0.2634
     12 N         -22.7330   29.8560   67.9550 N.ar    1  UNL1       -0.2324
     13 C         -21.0550   30.3510   66.7250 C.ar    1  UNL1        0.0709
     14 N         -23.4540   29.2650   68.9850 N.ar    1  UNL1       -0.2742
     15 C         -23.2640   30.4850   66.9400 C.ar    1  UNL1        0.1297
     16 N         -22.2040   30.8200   66.1660 N.ar    1  UNL1       -0.2350
     17 C         -19.6870   30.5130   66.1220 C.3     1  UNL1       -0.0200
     18 C         -24.7150   30.8130   66.7370 C.3     1  UNL1        0.0070
     19 C         -25.0320   32.0800   67.5320 C.3     1  UNL1       -0.0490
     20 C         -26.0740   31.7440   68.5720 C.3     1  UNL1       -0.0649
     21 O         -23.7420   29.7770   72.3650 O.3     1  UNL1       -0.4915
     22 C         -24.5790   30.8510   71.9560 C.3     1  UNL1        0.0868
     23 C         -23.7200   31.9930   71.4560 C.3     1  UNL1       -0.0307
     24 S         -24.9600   24.2430   71.2510 S.O2    1  UNL1        0.0610
     25 O         -24.0330   23.3420   71.8650 O.2     1  UNL1       -0.1528
     26 O         -26.2830   23.9720   71.7250 O.2     1  UNL1       -0.1528
     27 N         -24.9100   23.9770   69.7420 N.3     1  UNL1       -0.1741
     28 C         -26.0030   24.6050   68.9830 C.3     1  UNL1        0.0333
     29 C         -25.8570   24.4100   67.4850 C.3     1  UNL1        0.0134
     30 N         -24.4690   24.6930   67.1810 N.3     1  UNL1       -0.3001
     31 C         -23.5720   23.6430   67.6320 C.3     1  UNL1        0.0134
     32 C         -23.6210   23.5700   69.1640 C.3     1  UNL1        0.0333
     33 C         -24.2120   25.3100   65.8840 C.3     1  UNL1       -0.0039
     34 C         -23.3470   26.5540   66.0510 C.3     1  UNL1       -0.0524
     35 H         -25.2558   28.2038   73.9396 H       1  UNL1        0.0655
     36 H         -25.7652   25.8129   73.4486 H       1  UNL1        0.0638
     37 H         -23.4664   26.0525   69.7955 H       1  UNL1        0.0645
     38 H         -24.4829   29.2345   68.9494 H       1  UNL1        0.1890
     39 H         -18.9405   30.6014   66.9250 H       1  UNL1        0.0293
     40 H         -19.4543   29.6361   65.4999 H       1  UNL1        0.0293
     41 H         -19.6655   31.4200   65.4999 H       1  UNL1        0.0293
     42 H         -24.9125   30.9842   65.6685 H       1  UNL1        0.0344
     43 H         -25.3455   29.9798   67.0810 H       1  UNL1        0.0344
     44 H         -24.1198   32.4466   68.0254 H       1  UNL1        0.0267
     45 H         -25.4101   32.8632   66.8585 H       1  UNL1        0.0267
     46 H         -25.6472   31.8816   69.5764 H       1  UNL1        0.0230
     47 H         -26.9426   32.4076   68.4486 H       1  UNL1        0.0230
     48 H         -26.3913   30.6980   68.4486 H       1  UNL1        0.0230
     49 H         -25.2446   30.5112   71.1488 H       1  UNL1        0.0694
     50 H         -25.1844   31.1916   72.8090 H       1  UNL1        0.0694
     51 H         -23.3061   32.5433   72.3138 H       1  UNL1        0.0262
     52 H         -22.8971   31.5928   70.8455 H       1  UNL1        0.0262
     53 H         -24.3327   32.6726   70.8455 H       1  UNL1        0.0262
     54 H         -26.9566   24.1614   69.3052 H       1  UNL1        0.0456
     55 H         -25.9715   25.6860   69.1840 H       1  UNL1        0.0456
     56 H         -26.1060   23.3750   67.2078 H       1  UNL1        0.0440
     57 H         -26.5358   25.0691   66.9239 H       1  UNL1        0.0440
     58 H         -23.8883   22.6793   67.2063 H       1  UNL1        0.0440
     59 H         -22.5459   23.8630   67.3024 H       1  UNL1        0.0440
     60 H         -23.4184   22.5322   69.4673 H       1  UNL1        0.0456
     61 H         -22.8667   24.2768   69.5402 H       1  UNL1        0.0456
     62 H         -23.6903   24.5897   65.2367 H       1  UNL1        0.0424
     63 H         -25.1710   25.5998   65.4298 H       1  UNL1        0.0424
     64 H         -23.2038   26.7599   67.1220 H       1  UNL1        0.0242
     65 H         -22.3691   26.3871   65.5757 H       1  UNL1        0.0242
     66 H         -23.8439   27.4126   65.5757 H       1  UNL1        0.0242
@<TRIPOS>BOND
     1     2     1   ar
     2     3     2   ar
     3     4     3   ar
     4     5     4   ar
     5     6     5   ar
     6     6     1   ar
     7     7     6    1
     8     8     7   ar
     9     9     8   ar
    10    10     9   ar
    11    11     9    2
    12    12    10   ar
    13    13    10   ar
    14    14    12   ar
    15    14     7   ar
    16    15    12   ar
    17    16    15   ar
    18    16    13   ar
    19    17    13    1
    20    18    15    1
    21    19    18    1
    22    20    19    1
    23    21     1    1
    24    22    21    1
    25    23    22    1
    26    24     4    1
    27    25    24    2
    28    26    24    2
    29    27    24    1
    30    28    27    1
    31    29    28    1
    32    30    29    1
    33    31    30    1
    34    32    31    1
    35    32    27    1
    36    33    30    1
    37    34    33    1
    38     2    35    1
    39     3    36    1
    40     5    37    1
    41    14    38    1
    42    17    39    1
    43    17    40    1
    44    17    41    1
    45    18    42    1
    46    18    43    1
    47    19    44    1
    48    19    45    1
    49    20    46    1
    50    20    47    1
    51    20    48    1
    52    22    49    1
    53    22    50    1
    54    23    51    1
    55    23    52    1
    56    23    53    1
    57    28    54    1
    58    28    55    1
    59    29    56    1
    60    29    57    1
    61    31    58    1
    62    31    59    1
    63    32    60    1
    64    32    61    1
    65    33    62    1
    66    33    63    1
    67    34    64    1
    68    34    65    1
    69    34    66    1
