@<TRIPOS>MOLECULE
03U
 44 45 0 0 0
SMALL
GASTEIGER

@<TRIPOS>ATOM
      1 C          -8.4910   32.1700   -2.0490 C.ar    1  UNL1       -0.0169
      2 C          -8.8170   31.9480   -0.6980 C.ar    1  UNL1       -0.0513
      3 C          -7.2210   32.5980   -2.3940 C.ar    1  UNL1       -0.0513
      4 C          -9.4850   30.3610   -3.3300 C.ar    1  UNL1       -0.0515
      5 C          -9.5200   31.7190   -3.0070 C.ar    1  UNL1       -0.0038
      6 C         -14.8850   26.6580   -8.5790 C.3     1  UNL1       -0.0584
      7 C         -10.4610   29.7920   -4.1480 C.ar    1  UNL1       -0.0399
      8 C         -11.5350   31.9320   -4.3050 C.ar    1  UNL1       -0.0259
      9 C          -7.9360   32.2540    0.3160 C.ar    1  UNL1       -0.0259
     10 C          -6.3270   32.9000   -1.3730 C.ar    1  UNL1       -0.0259
     11 C         -15.6910   27.1530   -7.3600 C.3     1  UNL1        0.0033
     12 C         -10.5660   32.5050   -3.4860 C.ar    1  UNL1        0.0684
     13 C         -11.4880   30.5840   -4.6370 C.ar    1  UNL1        0.0345
     14 C         -15.4470   29.9520   -6.6990 C.1     1  UNL1        0.1077
     15 C         -14.7280   27.6840   -6.3110 C.2     1  UNL1        0.1161
     16 C          -6.6880   32.7290   -0.0380 C.ar    1  UNL1        0.1234
     17 C         -14.6380   29.0030   -6.0220 C.2     1  UNL1        0.1505
     18 C          -9.4060   35.1930   -4.7680 C.3     1  UNL1        0.0820
     19 N         -16.1550   30.6730   -7.2590 N.1     1  UNL1       -0.1906
     20 O         -13.9620   26.7680   -5.6970 O.2     1  UNL1       -0.5096
     21 F          -5.8450   33.0200    0.9280 F       1  UNL1       -0.2055
     22 N         -12.5120   30.0350   -5.4320 N.am    1  UNL1       -0.2808
     23 O         -11.7110   34.3760   -2.6790 O.2     1  UNL1       -0.2449
     24 O         -14.0010   29.5270   -3.8420 O.2     1  UNL1       -0.2690
     25 C         -13.7120   29.5340   -5.0190 C.2     1  UNL1        0.2618
     26 C         -10.7030   33.9320   -3.1660 C.2     1  UNL1        0.3396
     27 O          -9.6590   34.7600   -3.4230 O.3     1  UNL1       -0.4644
     28 H          -9.7378   31.5465   -0.4613 H       1  UNL1        0.0624
     29 H          -6.9446   32.6906   -3.3840 H       1  UNL1        0.0624
     30 H          -8.7256   29.7695   -2.9579 H       1  UNL1        0.0624
     31 H         -15.5569   26.2824   -9.3222 H       1  UNL1        0.0234
     32 H         -14.2191   25.8782   -8.2735 H       1  UNL1        0.0234
     33 H         -14.3200   27.4701   -8.9867 H       1  UNL1        0.0234
     34 H         -10.4188   28.7890   -4.3873 H       1  UNL1        0.0636
     35 H         -12.3010   32.5185   -4.6716 H       1  UNL1        0.0644
     36 H          -8.1994   32.1325    1.3064 H       1  UNL1        0.0646
     37 H          -5.3863   33.2545   -1.6062 H       1  UNL1        0.0646
     38 H         -16.2558   26.3418   -6.9503 H       1  UNL1        0.0341
     39 H         -16.3608   27.9309   -7.6619 H       1  UNL1        0.0341
     40 H          -8.5506   35.8356   -4.7809 H       1  UNL1        0.0661
     41 H         -10.2575   35.7252   -5.1375 H       1  UNL1        0.0661
     42 H          -9.2213   34.3409   -5.3882 H       1  UNL1        0.0661
     43 H         -14.0472   25.8616   -5.9185 H       1  UNL1        0.2917
     44 H         -12.3420   30.0096   -6.4014 H       1  UNL1        0.1552
@<TRIPOS>BOND
     1     2     1   ar
     2     3     1   ar
     3     5     4   ar
     4     5     1    1
     5     7     4   ar
     6     9     2   ar
     7    10     3   ar
     8    11     6    1
     9    12     8   ar
    10    12     5   ar
    11    13     8   ar
    12    13     7   ar
    13    15    11    1
    14    16     9   ar
    15    16    10   ar
    16    17    15    2
    17    17    14    1
    18    19    14    3
    19    20    15    1
    20    21    16    1
    21    22    13    1
    22    25    17    1
    23    25    24    2
    24    25    22   am
    25    26    23    2
    26    26    12    1
    27    27    26    1
    28    27    18    1
    29     2    28    1
    30     3    29    1
    31     4    30    1
    32     6    31    1
    33     6    32    1
    34     6    33    1
    35     7    34    1
    36     8    35    1
    37     9    36    1
    38    10    37    1
    39    11    38    1
    40    11    39    1
    41    18    40    1
    42    18    41    1
    43    18    42    1
    44    20    43    1
    45    22    44    1
